<edges>
  <!--Generated by AGR-->
  <edge from="n2" id="e0" numLanes="1" priority="1" to="n5">
    <!--Generated by AGR-->
  </edge>
  <edge from="n5" id="e1" numLanes="1" priority="1" to="n8">
    <!--Generated by AGR-->
  </edge>
  <edge from="n7" id="e2" numLanes="1" priority="1" to="n6">
    <!--Generated by AGR-->
  </edge>
  <edge from="n1" id="e3" numLanes="1" priority="1" to="n0">
    <!--Generated by AGR-->
  </edge>
  <edge from="n1" id="e4" numLanes="1" priority="1" to="n4">
    <!--Generated by AGR-->
  </edge>
  <edge from="n0" id="e5" numLanes="1" priority="1" to="n3">
    <!--Generated by AGR-->
  </edge>
  <edge from="n4" id="e6" numLanes="1" priority="1" to="n7">
    <!--Generated by AGR-->
  </edge>
  <edge from="n4" id="e7" numLanes="1" priority="1" to="n5">
    <!--Generated by AGR-->
  </edge>
  <edge from="n3" id="e8" numLanes="1" priority="1" to="n4">
    <!--Generated by AGR-->
  </edge>
  <edge from="n3" id="e9" numLanes="1" priority="1" to="n6">
    <!--Generated by AGR-->
  </edge>
  <edge from="n2" id="e10" numLanes="1" priority="1" to="n1">
    <!--Generated by AGR-->
  </edge>
  <edge from="n8" id="e11" numLanes="1" priority="1" to="n7">
    <!--Generated by AGR-->
  </edge>
  <edge from="n6" id="e12" numLanes="1" priority="1" to="n9">
    <!--Generated by AGR-->
  </edge>
  <edge from="n9" id="e13" numLanes="1" priority="1" to="n14">
    <!--Generated by AGR-->
  </edge>
  <edge from="n14" id="e14" numLanes="1" priority="1" to="n15">
    <!--Generated by AGR-->
  </edge>
  <edge from="n15" id="e15" numLanes="1" priority="1" to="n16">
    <!--Generated by AGR-->
  </edge>
  <edge from="n16" id="e16" numLanes="1" priority="1" to="n17">
    <!--Generated by AGR-->
  </edge>
  <edge from="n17" id="e17" numLanes="1" priority="1" to="n18">
    <!--Generated by AGR-->
  </edge>
  <edge from="n18" id="e18" numLanes="1" priority="1" to="n19">
    <!--Generated by AGR-->
  </edge>
  <edge from="n19" id="e19" numLanes="1" priority="1" to="n20">
    <!--Generated by AGR-->
  </edge>
  <edge from="n20" id="e20" numLanes="1" priority="1" to="n21">
    <!--Generated by AGR-->
  </edge>
  <edge from="n21" id="e21" numLanes="1" priority="1" to="n22">
    <!--Generated by AGR-->
  </edge>
  <edge from="n7" id="e22" numLanes="1" priority="1" to="n10">
    <!--Generated by AGR-->
  </edge>
  <edge from="n10" id="e23" numLanes="1" priority="1" to="n12">
    <!--Generated by AGR-->
  </edge>
  <edge from="n8" id="e24" numLanes="1" priority="1" to="n11">
    <!--Generated by AGR-->
  </edge>
  <edge from="n12" id="e25" numLanes="1" priority="1" to="n13">
    <!--Generated by AGR-->
  </edge>
  <edge from="n13" id="e26" numLanes="1" priority="1" to="n11">
    <!--Generated by AGR-->
  </edge>
  <edge from="n9" id="e27" numLanes="1" priority="1" to="n10">
    <!--Generated by AGR-->
  </edge>
  <edge from="n10" id="e28" numLanes="1" priority="1" to="n11">
    <!--Generated by AGR-->
  </edge>
  <edge from="n11" id="e29" numLanes="1" priority="1" to="n25">
    <!--Generated by AGR-->
  </edge>
  <edge from="n24" id="e30" numLanes="1" priority="1" to="n22">
    <!--Generated by AGR-->
  </edge>
  <edge from="n23" id="e31" numLanes="1" priority="1" to="n24">
    <!--Generated by AGR-->
  </edge>
  <edge from="n25" id="e32" numLanes="1" priority="1" to="n23">
    <!--Generated by AGR-->
  </edge>
  <edge from="n22" id="e33" numLanes="1" priority="1" to="n29">
    <!--Generated by AGR-->
  </edge>
  <edge from="n25" id="e34" numLanes="1" priority="1" to="n26">
    <!--Generated by AGR-->
  </edge>
  <edge from="n26" id="e35" numLanes="1" priority="1" to="n22">
    <!--Generated by AGR-->
  </edge>
  <edge from="n26" id="e36" numLanes="1" priority="1" to="n28">
    <!--Generated by AGR-->
  </edge>
  <edge from="n25" id="e37" numLanes="1" priority="1" to="n27">
    <!--Generated by AGR-->
  </edge>
  <edge from="n28" id="e38" numLanes="1" priority="1" to="n27">
    <!--Generated by AGR-->
  </edge>
  <edge from="n29" id="e39" numLanes="1" priority="1" to="n28">
    <!--Generated by AGR-->
  </edge>
  <edge from="n28" id="e40" numLanes="1" priority="1" to="n31">
    <!--Generated by AGR-->
  </edge>
  <edge from="n31" id="e41" numLanes="1" priority="1" to="n34">
    <!--Generated by AGR-->
  </edge>
  <edge from="n30" id="e42" numLanes="1" priority="1" to="n31">
    <!--Generated by AGR-->
  </edge>
  <edge from="n30" id="e43" numLanes="1" priority="1" to="n33">
    <!--Generated by AGR-->
  </edge>
  <edge from="n34" id="e44" numLanes="1" priority="1" to="n33">
    <!--Generated by AGR-->
  </edge>
  <edge from="n32" id="e45" numLanes="1" priority="1" to="n35">
    <!--Generated by AGR-->
  </edge>
  <edge from="n31" id="e46" numLanes="1" priority="1" to="n32">
    <!--Generated by AGR-->
  </edge>
  <edge from="n35" id="e47" numLanes="1" priority="1" to="n34">
    <!--Generated by AGR-->
  </edge>
  <edge from="n29" id="e48" numLanes="1" priority="1" to="n32">
    <!--Generated by AGR-->
  </edge>
  <edge from="n27" id="e49" numLanes="1" priority="1" to="n30">
    <!--Generated by AGR-->
  </edge>
</edges>
