<nodes>
  <!--Generated by AGR-->
  <node id="n0" type="unregulated" x="-745.7923" y="-34.202374">
    <!--Generated by AGR-->
  </node>
  <node id="n1" type="unregulated" x="-736.28864" y="38.677544">
    <!--Generated by AGR-->
  </node>
  <node id="n2" type="unregulated" x="-696.8804" y="103.31748">
    <!--Generated by AGR-->
  </node>
  <node id="n3" type="unregulated" x="-662.6609" y="-73.81806">
    <!--Generated by AGR-->
  </node>
  <node id="n4" type="unregulated" x="-639.23566" y="12.533323">
    <!--Generated by AGR-->
  </node>
  <node id="n5" type="unregulated" x="-597.5863" y="94.20502">
    <!--Generated by AGR-->
  </node>
  <node id="n6" type="unregulated" x="-528.30255" y="-123.45665">
    <!--Generated by AGR-->
  </node>
  <node id="n7" type="unregulated" x="-491.84894" y="-20.33299">
    <!--Generated by AGR-->
  </node>
  <node id="n8" type="unregulated" x="-430.54675" y="75.51798">
    <!--Generated by AGR-->
  </node>
  <node id="n9" type="unregulated" x="-388.3885" y="-198.12643">
    <!--Generated by AGR-->
  </node>
  <node id="n10" type="unregulated" x="-339.47513" y="-44.99987">
    <!--Generated by AGR-->
  </node>
  <node id="n11" type="unregulated" x="-194.29398" y="77.76485">
    <!--Generated by AGR-->
  </node>
  <node id="n12" type="unregulated" x="-232.6521" y="-60.267757">
    <!--Generated by AGR-->
  </node>
  <node id="n13" type="unregulated" x="-180.85487" y="-17.942837">
    <!--Generated by AGR-->
  </node>
  <node id="n14" type="unregulated" x="-283.17078" y="-228.44615">
    <!--Generated by AGR-->
  </node>
  <node id="n15" type="unregulated" x="-182.35883" y="-237.41791">
    <!--Generated by AGR-->
  </node>
  <node id="n16" type="unregulated" x="-85.63057" y="-238.52942">
    <!--Generated by AGR-->
  </node>
  <node id="n17" type="unregulated" x="19.468048" y="-228.525">
    <!--Generated by AGR-->
  </node>
  <node id="n18" type="unregulated" x="121.50139" y="-203.78516">
    <!--Generated by AGR-->
  </node>
  <node id="n19" type="unregulated" x="213.33379" y="-173.06575">
    <!--Generated by AGR-->
  </node>
  <node id="n20" type="unregulated" x="291.00558" y="-113.82">
    <!--Generated by AGR-->
  </node>
  <node id="n21" type="unregulated" x="357.00336" y="-45.78363">
    <!--Generated by AGR-->
  </node>
  <node id="n22" type="unregulated" x="406.65637" y="23.97714">
    <!--Generated by AGR-->
  </node>
  <node id="n23" type="unregulated" x="227.64313" y="86.15695">
    <!--Generated by AGR-->
  </node>
  <node id="n24" type="unregulated" x="313.05005" y="33.836147">
    <!--Generated by AGR-->
  </node>
  <node id="n25" type="unregulated" x="166.10576" y="157.9471">
    <!--Generated by AGR-->
  </node>
  <node id="n26" type="unregulated" x="338.89218" y="141.16148">
    <!--Generated by AGR-->
  </node>
  <node id="n27" type="unregulated" x="350.48502" y="283.0085">
    <!--Generated by AGR-->
  </node>
  <node id="n28" type="unregulated" x="445.56195" y="236.85092">
    <!--Generated by AGR-->
  </node>
  <node id="n29" type="unregulated" x="514.0406" y="162.87044">
    <!--Generated by AGR-->
  </node>
  <node id="n30" type="unregulated" x="479.56113" y="386.81686">
    <!--Generated by AGR-->
  </node>
  <node id="n31" type="unregulated" x="554.305" y="338.26645">
    <!--Generated by AGR-->
  </node>
  <node id="n32" type="unregulated" x="612.7654" y="273.53973">
    <!--Generated by AGR-->
  </node>
  <node id="n33" type="unregulated" x="559.5298" y="445.3067">
    <!--Generated by AGR-->
  </node>
  <node id="n34" type="unregulated" x="625.0486" y="408.9257">
    <!--Generated by AGR-->
  </node>
  <node id="n35" type="unregulated" x="667.44745" y="349.3433">
    <!--Generated by AGR-->
  </node>
</nodes>
