<routes>
  <vehicle depart="0.00" id="v0">
    <route edges="e0 e1 e24 e29 e34 e36 e38 e49 e43"/>
  </vehicle>
  <vehicle depart="1.00" id="v1">
    <route edges="e0 e1 e24 e29 e37 e49 e43"/>
  </vehicle>
  <vehicle depart="2.00" id="v2">
    <route edges="e3 e5 e8 e6 e22 e23 e25 e26 e29 e37 e49 e43"/>
  </vehicle>
  <vehicle depart="3.00" id="v3">
    <route edges="e3 e5 e9 e12 e27 e28 e29 e34 e36 e40 e46 e45 e47 e44"/>
  </vehicle>
  <vehicle depart="4.00" id="v4">
    <route edges="e4 e6 e22 e23 e25 e26 e29 e37 e49 e43"/>
  </vehicle>
  <vehicle depart="5.00" id="v5">
    <route edges="e0 e1 e24 e29 e37 e49 e42 e46 e45 e47 e44"/>
  </vehicle>
  <vehicle depart="6.00" id="v6">
    <route edges="e10 e3 e5 e9 e12 e13 e14 e15 e16 e17 e18 e19 e20 e21 e33 e39 e40 e41 e44"/>
  </vehicle>
  <vehicle depart="7.00" id="v7">
    <route edges="e10 e3 e5 e8 e7 e1 e24 e29 e32 e31 e30 e33 e39 e40 e46 e45 e47 e44"/>
  </vehicle>
  <vehicle depart="8.00" id="v8">
    <route edges="e0 e1 e11 e2 e12 e27 e23 e25 e26 e29 e32 e31 e30 e33 e39 e40 e46 e45 e47 e44"/>
  </vehicle>
  <vehicle depart="9.00" id="v9">
    <route edges="e4 e6 e22 e23 e25 e26 e29 e32 e31 e30 e33 e39 e38 e49 e42 e41 e44"/>
  </vehicle>
  <vehicle depart="10.00" id="v10">
    <route edges="e3 e5 e8 e6 e2 e12 e13 e14 e15 e16 e17 e18 e19 e20 e21 e33 e39 e38 e49 e42 e46 e45 e47 e44"/>
  </vehicle>
  <vehicle depart="11.00" id="v11">
    <route edges="e10 e3 e5 e9 e12 e27 e28 e29 e32 e31 e30 e33 e39 e40 e46 e45 e47 e44"/>
  </vehicle>
  <vehicle depart="12.00" id="v12">
    <route edges="e3 e5 e9 e12 e13 e14 e15 e16 e17 e18 e19 e20 e21 e33 e39 e38 e49 e42 e41 e44"/>
  </vehicle>
  <vehicle depart="13.00" id="v13">
    <route edges="e0 e1 e11 e2 e12 e13 e14 e15 e16 e17 e18 e19 e20 e21 e33 e48 e45 e47 e44"/>
  </vehicle>
  <vehicle depart="14.00" id="v14">
    <route edges="e5 e8 e7 e1 e24 e29 e37 e49 e42 e46 e45 e47 e44"/>
  </vehicle>
  <vehicle depart="15.00" id="v15">
    <route edges="e3 e5 e9 e12 e27 e23 e25 e26 e29 e32 e31 e30 e33 e48 e45 e47 e44"/>
  </vehicle>
  <vehicle depart="16.00" id="v16">
    <route edges="e4 e6 e22 e23 e25 e26 e29 e32 e31 e30 e33 e39 e40 e41 e44"/>
  </vehicle>
  <vehicle depart="17.00" id="v17">
    <route edges="e10 e4 e7 e1 e24 e29 e32 e31 e30 e33 e48 e45 e47 e44"/>
  </vehicle>
  <vehicle depart="18.00" id="v18">
    <route edges="e3 e5 e8 e7 e1 e24 e29 e37 e49 e43"/>
  </vehicle>
  <vehicle depart="19.00" id="v19">
    <route edges="e10 e3 e5 e8 e6 e2 e12 e27 e28 e29 e34 e36 e38 e49 e42 e41 e44"/>
  </vehicle>
  <vehicle depart="20.00" id="v20">
    <route edges="e10 e4 e6 e2 e12 e27 e23 e25 e26 e29 e34 e36 e38 e49 e42 e41 e44"/>
  </vehicle>
  <vehicle depart="21.00" id="v21">
    <route edges="e0 e1 e24 e29 e32 e31 e30 e33 e39 e38 e49 e42 e46 e45 e47 e44"/>
  </vehicle>
  <vehicle depart="22.00" id="v22">
    <route edges="e0 e1 e24 e29 e32 e31 e30 e33 e48 e45 e47 e44"/>
  </vehicle>
  <vehicle depart="23.00" id="v23">
    <route edges="e0 e1 e24 e29 e32 e31 e30 e33 e39 e38 e49 e42 e41 e44"/>
  </vehicle>
  <vehicle depart="24.00" id="v24">
    <route edges="e3 e5 e8 e6 e2 e12 e27 e28 e29 e37 e49 e42 e41 e44"/>
  </vehicle>
  <vehicle depart="25.00" id="v25">
    <route edges="e10 e3 e5 e9 e12 e27 e28 e29 e37 e49 e42 e46 e45 e47 e44"/>
  </vehicle>
  <vehicle depart="26.00" id="v26">
    <route edges="e5 e9 e12 e13 e14 e15 e16 e17 e18 e19 e20 e21 e33 e39 e40 e46 e45 e47 e44"/>
  </vehicle>
  <vehicle depart="27.00" id="v27">
    <route edges="e0 e1 e24 e29 e37 e49 e43"/>
  </vehicle>
  <vehicle depart="28.00" id="v28">
    <route edges="e0 e1 e24 e29 e34 e36 e40 e41 e44"/>
  </vehicle>
  <vehicle depart="29.00" id="v29">
    <route edges="e0 e1 e11 e22 e23 e25 e26 e29 e37 e49 e42 e46 e45 e47 e44"/>
  </vehicle>
  <vehicle depart="30.00" id="v30">
    <route edges="e5 e9 e12 e13 e14 e15 e16 e17 e18 e19 e20 e21 e33 e39 e38 e49 e42 e41 e44"/>
  </vehicle>
  <vehicle depart="31.00" id="v31">
    <route edges="e10 e3 e5 e9 e12 e27 e28 e29 e37 e49 e42 e41 e44"/>
  </vehicle>
  <vehicle depart="32.00" id="v32">
    <route edges="e0 e1 e11 e2 e12 e13 e14 e15 e16 e17 e18 e19 e20 e21 e33 e39 e38 e49 e43"/>
  </vehicle>
  <vehicle depart="33.00" id="v33">
    <route edges="e0 e1 e11 e2 e12 e27 e28 e29 e34 e35 e33 e48 e45 e47 e44"/>
  </vehicle>
  <vehicle depart="34.00" id="v34">
    <route edges="e0 e1 e11 e22 e28 e29 e32 e31 e30 e33 e48 e45 e47 e44"/>
  </vehicle>
  <vehicle depart="35.00" id="v35">
    <route edges="e4 e6 e22 e23 e25 e26 e29 e34 e36 e40 e46 e45 e47 e44"/>
  </vehicle>
  <vehicle depart="36.00" id="v36">
    <route edges="e4 e6 e2 e12 e27 e28 e29 e34 e36 e40 e46 e45 e47 e44"/>
  </vehicle>
  <vehicle depart="37.00" id="v37">
    <route edges="e5 e8 e7 e1 e11 e2 e12 e13 e14 e15 e16 e17 e18 e19 e20 e21 e33 e48 e45 e47 e44"/>
  </vehicle>
  <vehicle depart="38.00" id="v38">
    <route edges="e4 e7 e1 e24 e29 e37 e49 e43"/>
  </vehicle>
  <vehicle depart="39.00" id="v39">
    <route edges="e3 e5 e8 e7 e1 e11 e22 e28 e29 e34 e35 e33 e39 e38 e49 e42 e41 e44"/>
  </vehicle>
  <vehicle depart="40.00" id="v40">
    <route edges="e5 e8 e7 e1 e24 e29 e32 e31 e30 e33 e48 e45 e47 e44"/>
  </vehicle>
  <vehicle depart="41.00" id="v41">
    <route edges="e0 e1 e11 e2 e12 e27 e23 e25 e26 e29 e32 e31 e30 e33 e48 e45 e47 e44"/>
  </vehicle>
  <vehicle depart="42.00" id="v42">
    <route edges="e5 e9 e12 e27 e23 e25 e26 e29 e34 e36 e38 e49 e43"/>
  </vehicle>
  <vehicle depart="43.00" id="v43">
    <route edges="e5 e8 e7 e1 e11 e2 e12 e13 e14 e15 e16 e17 e18 e19 e20 e21 e33 e39 e40 e41 e44"/>
  </vehicle>
  <vehicle depart="44.00" id="v44">
    <route edges="e10 e4 e6 e2 e12 e27 e23 e25 e26 e29 e34 e36 e38 e49 e43"/>
  </vehicle>
  <vehicle depart="45.00" id="v45">
    <route edges="e5 e9 e12 e27 e28 e29 e32 e31 e30 e33 e39 e38 e49 e42 e41 e44"/>
  </vehicle>
  <vehicle depart="46.00" id="v46">
    <route edges="e0 e1 e24 e29 e37 e49 e43"/>
  </vehicle>
  <vehicle depart="47.00" id="v47">
    <route edges="e3 e5 e9 e12 e27 e28 e29 e32 e31 e30 e33 e39 e38 e49 e42 e41 e44"/>
  </vehicle>
  <vehicle depart="48.00" id="v48">
    <route edges="e5 e8 e7 e1 e11 e22 e23 e25 e26 e29 e34 e36 e38 e49 e43"/>
  </vehicle>
  <vehicle depart="49.00" id="v49">
    <route edges="e10 e4 e6 e22 e28 e29 e37 e49 e42 e41 e44"/>
  </vehicle>
  <vehicle depart="50.00" id="v50">
    <route edges="e10 e3 e5 e9 e12 e27 e28 e29 e32 e31 e30 e33 e48 e45 e47 e44"/>
  </vehicle>
  <vehicle depart="51.00" id="v51">
    <route edges="e0 e1 e24 e29 e32 e31 e30 e33 e39 e38 e49 e43"/>
  </vehicle>
  <vehicle depart="52.00" id="v52">
    <route edges="e10 e3 e5 e9 e12 e27 e28 e29 e34 e36 e38 e49 e42 e46 e45 e47 e44"/>
  </vehicle>
  <vehicle depart="53.00" id="v53">
    <route edges="e5 e8 e7 e1 e24 e29 e37 e49 e43"/>
  </vehicle>
  <vehicle depart="54.00" id="v54">
    <route edges="e10 e4 e7 e1 e11 e22 e23 e25 e26 e29 e34 e35 e33 e48 e45 e47 e44"/>
  </vehicle>
  <vehicle depart="55.00" id="v55">
    <route edges="e5 e8 e6 e22 e23 e25 e26 e29 e32 e31 e30 e33 e48 e45 e47 e44"/>
  </vehicle>
  <vehicle depart="56.00" id="v56">
    <route edges="e5 e8 e7 e1 e24 e29 e34 e35 e33 e48 e45 e47 e44"/>
  </vehicle>
  <vehicle depart="57.00" id="v57">
    <route edges="e10 e4 e6 e22 e23 e25 e26 e29 e37 e49 e43"/>
  </vehicle>
  <vehicle depart="58.00" id="v58">
    <route edges="e4 e6 e2 e12 e27 e28 e29 e32 e31 e30 e33 e48 e45 e47 e44"/>
  </vehicle>
  <vehicle depart="59.00" id="v59">
    <route edges="e3 e5 e9 e12 e27 e28 e29 e32 e31 e30 e33 e48 e45 e47 e44"/>
  </vehicle>
  <vehicle depart="60.00" id="v60">
    <route edges="e5 e8 e7 e1 e24 e29 e37 e49 e43"/>
  </vehicle>
  <vehicle depart="61.00" id="v61">
    <route edges="e5 e8 e7 e1 e24 e29 e37 e49 e43"/>
  </vehicle>
  <vehicle depart="62.00" id="v62">
    <route edges="e5 e9 e12 e27 e23 e25 e26 e29 e37 e49 e42 e41 e44"/>
  </vehicle>
  <vehicle depart="63.00" id="v63">
    <route edges="e10 e4 e7 e1 e11 e2 e12 e13 e14 e15 e16 e17 e18 e19 e20 e21 e33 e48 e45 e47 e44"/>
  </vehicle>
  <vehicle depart="64.00" id="v64">
    <route edges="e10 e3 e5 e9 e12 e13 e14 e15 e16 e17 e18 e19 e20 e21 e33 e48 e45 e47 e44"/>
  </vehicle>
  <vehicle depart="65.00" id="v65">
    <route edges="e0 e1 e24 e29 e37 e49 e43"/>
  </vehicle>
  <vehicle depart="66.00" id="v66">
    <route edges="e4 e6 e22 e28 e29 e34 e35 e33 e39 e40 e46 e45 e47 e44"/>
  </vehicle>
  <vehicle depart="67.00" id="v67">
    <route edges="e10 e3 e5 e9 e12 e13 e14 e15 e16 e17 e18 e19 e20 e21 e33 e39 e40 e46 e45 e47 e44"/>
  </vehicle>
  <vehicle depart="68.00" id="v68">
    <route edges="e5 e8 e6 e2 e12 e27 e23 e25 e26 e29 e34 e36 e40 e46 e45 e47 e44"/>
  </vehicle>
  <vehicle depart="69.00" id="v69">
    <route edges="e0 e1 e24 e29 e32 e31 e30 e33 e48 e45 e47 e44"/>
  </vehicle>
  <vehicle depart="70.00" id="v70">
    <route edges="e4 e7 e1 e11 e2 e12 e27 e23 e25 e26 e29 e37 e49 e43"/>
  </vehicle>
  <vehicle depart="71.00" id="v71">
    <route edges="e0 e1 e24 e29 e37 e49 e42 e41 e44"/>
  </vehicle>
  <vehicle depart="72.00" id="v72">
    <route edges="e4 e6 e22 e23 e25 e26 e29 e32 e31 e30 e33 e48 e45 e47 e44"/>
  </vehicle>
  <vehicle depart="73.00" id="v73">
    <route edges="e4 e6 e2 e12 e27 e23 e25 e26 e29 e37 e49 e42 e46 e45 e47 e44"/>
  </vehicle>
  <vehicle depart="74.00" id="v74">
    <route edges="e4 e7 e1 e11 e2 e12 e13 e14 e15 e16 e17 e18 e19 e20 e21 e33 e48 e45 e47 e44"/>
  </vehicle>
  <vehicle depart="75.00" id="v75">
    <route edges="e5 e9 e12 e27 e28 e29 e37 e49 e43"/>
  </vehicle>
  <vehicle depart="76.00" id="v76">
    <route edges="e5 e8 e6 e2 e12 e13 e14 e15 e16 e17 e18 e19 e20 e21 e33 e39 e40 e41 e44"/>
  </vehicle>
  <vehicle depart="77.00" id="v77">
    <route edges="e10 e4 e6 e2 e12 e13 e14 e15 e16 e17 e18 e19 e20 e21 e33 e39 e40 e41 e44"/>
  </vehicle>
  <vehicle depart="78.00" id="v78">
    <route edges="e4 e6 e2 e12 e27 e23 e25 e26 e29 e34 e36 e40 e41 e44"/>
  </vehicle>
  <vehicle depart="79.00" id="v79">
    <route edges="e0 e1 e24 e29 e32 e31 e30 e33 e48 e45 e47 e44"/>
  </vehicle>
  <vehicle depart="80.00" id="v80">
    <route edges="e10 e4 e7 e1 e24 e29 e37 e49 e43"/>
  </vehicle>
  <vehicle depart="81.00" id="v81">
    <route edges="e0 e1 e24 e29 e37 e49 e42 e46 e45 e47 e44"/>
  </vehicle>
  <vehicle depart="82.00" id="v82">
    <route edges="e4 e6 e2 e12 e13 e14 e15 e16 e17 e18 e19 e20 e21 e33 e48 e45 e47 e44"/>
  </vehicle>
  <vehicle depart="83.00" id="v83">
    <route edges="e5 e9 e12 e13 e14 e15 e16 e17 e18 e19 e20 e21 e33 e48 e45 e47 e44"/>
  </vehicle>
  <vehicle depart="84.00" id="v84">
    <route edges="e0 e1 e24 e29 e37 e49 e42 e46 e45 e47 e44"/>
  </vehicle>
  <vehicle depart="85.00" id="v85">
    <route edges="e10 e3 e5 e9 e12 e27 e23 e25 e26 e29 e34 e36 e40 e41 e44"/>
  </vehicle>
  <vehicle depart="86.00" id="v86">
    <route edges="e5 e8 e7 e1 e11 e22 e28 e29 e34 e36 e38 e49 e43"/>
  </vehicle>
  <vehicle depart="87.00" id="v87">
    <route edges="e4 e6 e22 e23 e25 e26 e29 e34 e36 e40 e46 e45 e47 e44"/>
  </vehicle>
  <vehicle depart="88.00" id="v88">
    <route edges="e10 e3 e5 e8 e6 e22 e23 e25 e26 e29 e32 e31 e30 e33 e48 e45 e47 e44"/>
  </vehicle>
  <vehicle depart="89.00" id="v89">
    <route edges="e5 e9 e12 e27 e23 e25 e26 e29 e32 e31 e30 e33 e39 e40 e46 e45 e47 e44"/>
  </vehicle>
  <vehicle depart="90.00" id="v90">
    <route edges="e5 e9 e12 e13 e14 e15 e16 e17 e18 e19 e20 e21 e33 e48 e45 e47 e44"/>
  </vehicle>
  <vehicle depart="91.00" id="v91">
    <route edges="e5 e9 e12 e13 e14 e15 e16 e17 e18 e19 e20 e21 e33 e48 e45 e47 e44"/>
  </vehicle>
  <vehicle depart="92.00" id="v92">
    <route edges="e5 e9 e12 e27 e28 e29 e32 e31 e30 e33 e39 e38 e49 e43"/>
  </vehicle>
  <vehicle depart="93.00" id="v93">
    <route edges="e4 e6 e22 e28 e29 e37 e49 e43"/>
  </vehicle>
  <vehicle depart="94.00" id="v94">
    <route edges="e4 e6 e2 e12 e13 e14 e15 e16 e17 e18 e19 e20 e21 e33 e39 e38 e49 e43"/>
  </vehicle>
  <vehicle depart="95.00" id="v95">
    <route edges="e0 e1 e24 e29 e34 e36 e40 e41 e44"/>
  </vehicle>
  <vehicle depart="96.00" id="v96">
    <route edges="e5 e9 e12 e13 e14 e15 e16 e17 e18 e19 e20 e21 e33 e48 e45 e47 e44"/>
  </vehicle>
  <vehicle depart="97.00" id="v97">
    <route edges="e0 e1 e11 e2 e12 e27 e23 e25 e26 e29 e37 e49 e42 e41 e44"/>
  </vehicle>
  <vehicle depart="98.00" id="v98">
    <route edges="e5 e8 e6 e2 e12 e27 e23 e25 e26 e29 e32 e31 e30 e33 e48 e45 e47 e44"/>
  </vehicle>
  <vehicle depart="99.00" id="v99">
    <route edges="e3 e5 e9 e12 e13 e14 e15 e16 e17 e18 e19 e20 e21 e33 e48 e45 e47 e44"/>
  </vehicle>
  <vehicle depart="100.00" id="v100">
    <route edges="e5 e9 e12 e13 e14 e15 e16 e17 e18 e19 e20 e21 e33 e48 e45 e47 e44"/>
  </vehicle>
  <vehicle depart="101.00" id="v101">
    <route edges="e10 e4 e7 e1 e24 e29 e37 e49 e43"/>
  </vehicle>
  <vehicle depart="102.00" id="v102">
    <route edges="e4 e6 e2 e12 e27 e28 e29 e32 e31 e30 e33 e48 e45 e47 e44"/>
  </vehicle>
  <vehicle depart="103.00" id="v103">
    <route edges="e3 e5 e9 e12 e13 e14 e15 e16 e17 e18 e19 e20 e21 e33 e48 e45 e47 e44"/>
  </vehicle>
  <vehicle depart="104.00" id="v104">
    <route edges="e0 e1 e24 e29 e32 e31 e30 e33 e48 e45 e47 e44"/>
  </vehicle>
  <vehicle depart="105.00" id="v105">
    <route edges="e0 e1 e11 e22 e23 e25 e26 e29 e37 e49 e43"/>
  </vehicle>
  <vehicle depart="106.00" id="v106">
    <route edges="e0 e1 e11 e2 e12 e27 e28 e29 e32 e31 e30 e33 e39 e40 e46 e45 e47 e44"/>
  </vehicle>
  <vehicle depart="107.00" id="v107">
    <route edges="e3 e5 e8 e7 e1 e24 e29 e34 e36 e38 e49 e42 e41 e44"/>
  </vehicle>
  <vehicle depart="108.00" id="v108">
    <route edges="e0 e1 e24 e29 e32 e31 e30 e33 e48 e45 e47 e44"/>
  </vehicle>
  <vehicle depart="109.00" id="v109">
    <route edges="e5 e8 e6 e22 e23 e25 e26 e29 e32 e31 e30 e33 e39 e40 e41 e44"/>
  </vehicle>
  <vehicle depart="110.00" id="v110">
    <route edges="e5 e8 e7 e1 e24 e29 e34 e35 e33 e48 e45 e47 e44"/>
  </vehicle>
  <vehicle depart="111.00" id="v111">
    <route edges="e5 e9 e12 e13 e14 e15 e16 e17 e18 e19 e20 e21 e33 e39 e38 e49 e42 e41 e44"/>
  </vehicle>
  <vehicle depart="112.00" id="v112">
    <route edges="e5 e9 e12 e13 e14 e15 e16 e17 e18 e19 e20 e21 e33 e39 e40 e41 e44"/>
  </vehicle>
  <vehicle depart="113.00" id="v113">
    <route edges="e5 e8 e7 e1 e24 e29 e32 e31 e30 e33 e39 e38 e49 e42 e46 e45 e47 e44"/>
  </vehicle>
  <vehicle depart="114.00" id="v114">
    <route edges="e10 e4 e6 e22 e23 e25 e26 e29 e34 e36 e40 e46 e45 e47 e44"/>
  </vehicle>
  <vehicle depart="115.00" id="v115">
    <route edges="e4 e6 e22 e28 e29 e37 e49 e42 e46 e45 e47 e44"/>
  </vehicle>
  <vehicle depart="116.00" id="v116">
    <route edges="e5 e8 e7 e1 e11 e22 e23 e25 e26 e29 e34 e36 e38 e49 e43"/>
  </vehicle>
  <vehicle depart="117.00" id="v117">
    <route edges="e4 e7 e1 e24 e29 e37 e49 e43"/>
  </vehicle>
  <vehicle depart="118.00" id="v118">
    <route edges="e10 e4 e7 e1 e11 e2 e12 e13 e14 e15 e16 e17 e18 e19 e20 e21 e33 e48 e45 e47 e44"/>
  </vehicle>
  <vehicle depart="119.00" id="v119">
    <route edges="e5 e8 e6 e2 e12 e13 e14 e15 e16 e17 e18 e19 e20 e21 e33 e39 e38 e49 e42 e46 e45 e47 e44"/>
  </vehicle>
  <vehicle depart="120.00" id="v120">
    <route edges="e4 e6 e22 e23 e25 e26 e29 e37 e49 e43"/>
  </vehicle>
  <vehicle depart="121.00" id="v121">
    <route edges="e4 e6 e2 e12 e27 e23 e25 e26 e29 e32 e31 e30 e33 e39 e38 e49 e43"/>
  </vehicle>
  <vehicle depart="122.00" id="v122">
    <route edges="e5 e8 e6 e22 e23 e25 e26 e29 e37 e49 e42 e41 e44"/>
  </vehicle>
  <vehicle depart="123.00" id="v123">
    <route edges="e5 e9 e12 e13 e14 e15 e16 e17 e18 e19 e20 e21 e33 e39 e40 e46 e45 e47 e44"/>
  </vehicle>
  <vehicle depart="124.00" id="v124">
    <route edges="e3 e5 e9 e12 e27 e28 e29 e34 e36 e38 e49 e43"/>
  </vehicle>
  <vehicle depart="125.00" id="v125">
    <route edges="e10 e3 e5 e8 e7 e1 e11 e2 e12 e13 e14 e15 e16 e17 e18 e19 e20 e21 e33 e48 e45 e47 e44"/>
  </vehicle>
  <vehicle depart="126.00" id="v126">
    <route edges="e5 e9 e12 e27 e23 e25 e26 e29 e32 e31 e30 e33 e39 e40 e41 e44"/>
  </vehicle>
  <vehicle depart="127.00" id="v127">
    <route edges="e0 e1 e24 e29 e34 e36 e40 e46 e45 e47 e44"/>
  </vehicle>
  <vehicle depart="128.00" id="v128">
    <route edges="e4 e6 e22 e28 e29 e37 e49 e42 e41 e44"/>
  </vehicle>
  <vehicle depart="129.00" id="v129">
    <route edges="e3 e5 e9 e12 e27 e23 e25 e26 e29 e32 e31 e30 e33 e48 e45 e47 e44"/>
  </vehicle>
  <vehicle depart="130.00" id="v130">
    <route edges="e10 e4 e6 e22 e28 e29 e37 e49 e43"/>
  </vehicle>
  <vehicle depart="131.00" id="v131">
    <route edges="e5 e9 e12 e13 e14 e15 e16 e17 e18 e19 e20 e21 e33 e39 e40 e46 e45 e47 e44"/>
  </vehicle>
  <vehicle depart="132.00" id="v132">
    <route edges="e3 e5 e8 e6 e2 e12 e13 e14 e15 e16 e17 e18 e19 e20 e21 e33 e48 e45 e47 e44"/>
  </vehicle>
  <vehicle depart="133.00" id="v133">
    <route edges="e10 e3 e5 e9 e12 e13 e14 e15 e16 e17 e18 e19 e20 e21 e33 e48 e45 e47 e44"/>
  </vehicle>
  <vehicle depart="134.00" id="v134">
    <route edges="e5 e9 e12 e13 e14 e15 e16 e17 e18 e19 e20 e21 e33 e48 e45 e47 e44"/>
  </vehicle>
  <vehicle depart="135.00" id="v135">
    <route edges="e10 e3 e5 e8 e7 e1 e11 e22 e28 e29 e32 e31 e30 e33 e48 e45 e47 e44"/>
  </vehicle>
  <vehicle depart="136.00" id="v136">
    <route edges="e5 e8 e7 e1 e24 e29 e32 e31 e30 e33 e39 e40 e41 e44"/>
  </vehicle>
  <vehicle depart="137.00" id="v137">
    <route edges="e4 e7 e1 e11 e22 e28 e29 e37 e49 e43"/>
  </vehicle>
  <vehicle depart="138.00" id="v138">
    <route edges="e0 e1 e24 e29 e37 e49 e42 e41 e44"/>
  </vehicle>
  <vehicle depart="139.00" id="v139">
    <route edges="e5 e8 e7 e1 e24 e29 e32 e31 e30 e33 e48 e45 e47 e44"/>
  </vehicle>
  <vehicle depart="140.00" id="v140">
    <route edges="e0 e1 e11 e2 e12 e13 e14 e15 e16 e17 e18 e19 e20 e21 e33 e48 e45 e47 e44"/>
  </vehicle>
  <vehicle depart="141.00" id="v141">
    <route edges="e5 e9 e12 e27 e23 e25 e26 e29 e32 e31 e30 e33 e39 e40 e41 e44"/>
  </vehicle>
  <vehicle depart="142.00" id="v142">
    <route edges="e0 e1 e24 e29 e37 e49 e43"/>
  </vehicle>
  <vehicle depart="143.00" id="v143">
    <route edges="e5 e9 e12 e27 e28 e29 e32 e31 e30 e33 e48 e45 e47 e44"/>
  </vehicle>
  <vehicle depart="144.00" id="v144">
    <route edges="e10 e4 e7 e1 e11 e2 e12 e27 e28 e29 e34 e36 e38 e49 e43"/>
  </vehicle>
  <vehicle depart="145.00" id="v145">
    <route edges="e5 e8 e7 e1 e11 e2 e12 e27 e28 e29 e37 e49 e43"/>
  </vehicle>
  <vehicle depart="146.00" id="v146">
    <route edges="e4 e6 e2 e12 e13 e14 e15 e16 e17 e18 e19 e20 e21 e33 e48 e45 e47 e44"/>
  </vehicle>
  <vehicle depart="147.00" id="v147">
    <route edges="e0 e1 e24 e29 e34 e36 e38 e49 e43"/>
  </vehicle>
  <vehicle depart="148.00" id="v148">
    <route edges="e10 e4 e6 e22 e28 e29 e37 e49 e42 e41 e44"/>
  </vehicle>
  <vehicle depart="149.00" id="v149">
    <route edges="e3 e5 e9 e12 e27 e28 e29 e32 e31 e30 e33 e48 e45 e47 e44"/>
  </vehicle>
  <vehicle depart="150.00" id="v150">
    <route edges="e5 e8 e7 e1 e11 e22 e23 e25 e26 e29 e32 e31 e30 e33 e48 e45 e47 e44"/>
  </vehicle>
  <vehicle depart="151.00" id="v151">
    <route edges="e5 e8 e6 e2 e12 e27 e23 e25 e26 e29 e34 e35 e33 e48 e45 e47 e44"/>
  </vehicle>
  <vehicle depart="152.00" id="v152">
    <route edges="e5 e8 e6 e2 e12 e13 e14 e15 e16 e17 e18 e19 e20 e21 e33 e48 e45 e47 e44"/>
  </vehicle>
  <vehicle depart="153.00" id="v153">
    <route edges="e5 e8 e7 e1 e11 e22 e28 e29 e37 e49 e43"/>
  </vehicle>
  <vehicle depart="154.00" id="v154">
    <route edges="e5 e8 e7 e1 e11 e2 e12 e27 e28 e29 e37 e49 e42 e46 e45 e47 e44"/>
  </vehicle>
  <vehicle depart="155.00" id="v155">
    <route edges="e10 e4 e6 e22 e28 e29 e37 e49 e43"/>
  </vehicle>
  <vehicle depart="156.00" id="v156">
    <route edges="e3 e5 e8 e7 e1 e11 e2 e12 e27 e23 e25 e26 e29 e32 e31 e30 e33 e39 e38 e49 e43"/>
  </vehicle>
  <vehicle depart="157.00" id="v157">
    <route edges="e5 e8 e6 e2 e12 e27 e23 e25 e26 e29 e37 e49 e43"/>
  </vehicle>
  <vehicle depart="158.00" id="v158">
    <route edges="e5 e8 e6 e2 e12 e13 e14 e15 e16 e17 e18 e19 e20 e21 e33 e39 e40 e46 e45 e47 e44"/>
  </vehicle>
  <vehicle depart="159.00" id="v159">
    <route edges="e10 e4 e7 e1 e24 e29 e34 e36 e40 e41 e44"/>
  </vehicle>
  <vehicle depart="160.00" id="v160">
    <route edges="e3 e5 e8 e6 e22 e28 e29 e34 e36 e40 e46 e45 e47 e44"/>
  </vehicle>
  <vehicle depart="161.00" id="v161">
    <route edges="e4 e7 e1 e11 e2 e12 e13 e14 e15 e16 e17 e18 e19 e20 e21 e33 e48 e45 e47 e44"/>
  </vehicle>
  <vehicle depart="162.00" id="v162">
    <route edges="e3 e5 e8 e7 e1 e24 e29 e34 e36 e38 e49 e42 e41 e44"/>
  </vehicle>
  <vehicle depart="163.00" id="v163">
    <route edges="e3 e5 e9 e12 e13 e14 e15 e16 e17 e18 e19 e20 e21 e33 e48 e45 e47 e44"/>
  </vehicle>
  <vehicle depart="164.00" id="v164">
    <route edges="e4 e6 e2 e12 e27 e23 e25 e26 e29 e37 e49 e43"/>
  </vehicle>
  <vehicle depart="165.00" id="v165">
    <route edges="e4 e7 e1 e11 e22 e23 e25 e26 e29 e37 e49 e42 e41 e44"/>
  </vehicle>
  <vehicle depart="166.00" id="v166">
    <route edges="e5 e9 e12 e27 e23 e25 e26 e29 e32 e31 e30 e33 e48 e45 e47 e44"/>
  </vehicle>
  <vehicle depart="167.00" id="v167">
    <route edges="e5 e8 e7 e1 e11 e22 e28 e29 e34 e36 e38 e49 e42 e46 e45 e47 e44"/>
  </vehicle>
  <vehicle depart="168.00" id="v168">
    <route edges="e5 e9 e12 e27 e28 e29 e32 e31 e30 e33 e39 e38 e49 e42 e46 e45 e47 e44"/>
  </vehicle>
  <vehicle depart="169.00" id="v169">
    <route edges="e5 e9 e12 e27 e28 e29 e32 e31 e30 e33 e39 e38 e49 e42 e41 e44"/>
  </vehicle>
  <vehicle depart="170.00" id="v170">
    <route edges="e0 e1 e24 e29 e34 e35 e33 e39 e38 e49 e43"/>
  </vehicle>
  <vehicle depart="171.00" id="v171">
    <route edges="e5 e9 e12 e27 e23 e25 e26 e29 e32 e31 e30 e33 e39 e38 e49 e42 e41 e44"/>
  </vehicle>
  <vehicle depart="172.00" id="v172">
    <route edges="e4 e6 e22 e28 e29 e37 e49 e43"/>
  </vehicle>
  <vehicle depart="173.00" id="v173">
    <route edges="e5 e9 e12 e13 e14 e15 e16 e17 e18 e19 e20 e21 e33 e39 e38 e49 e43"/>
  </vehicle>
  <vehicle depart="174.00" id="v174">
    <route edges="e4 e7 e1 e11 e2 e12 e27 e28 e29 e37 e49 e43"/>
  </vehicle>
  <vehicle depart="175.00" id="v175">
    <route edges="e4 e6 e2 e12 e27 e23 e25 e26 e29 e37 e49 e43"/>
  </vehicle>
  <vehicle depart="176.00" id="v176">
    <route edges="e3 e5 e8 e7 e1 e24 e29 e34 e36 e38 e49 e43"/>
  </vehicle>
  <vehicle depart="177.00" id="v177">
    <route edges="e5 e8 e7 e1 e11 e22 e23 e25 e26 e29 e37 e49 e42 e41 e44"/>
  </vehicle>
  <vehicle depart="178.00" id="v178">
    <route edges="e10 e4 e7 e1 e11 e2 e12 e27 e28 e29 e37 e49 e43"/>
  </vehicle>
  <vehicle depart="179.00" id="v179">
    <route edges="e3 e5 e8 e7 e1 e24 e29 e37 e49 e42 e46 e45 e47 e44"/>
  </vehicle>
  <vehicle depart="180.00" id="v180">
    <route edges="e0 e1 e24 e29 e34 e36 e38 e49 e42 e41 e44"/>
  </vehicle>
  <vehicle depart="181.00" id="v181">
    <route edges="e3 e5 e8 e6 e2 e12 e13 e14 e15 e16 e17 e18 e19 e20 e21 e33 e39 e38 e49 e43"/>
  </vehicle>
  <vehicle depart="182.00" id="v182">
    <route edges="e0 e1 e11 e22 e23 e25 e26 e29 e37 e49 e42 e41 e44"/>
  </vehicle>
  <vehicle depart="183.00" id="v183">
    <route edges="e3 e5 e9 e12 e27 e28 e29 e34 e35 e33 e48 e45 e47 e44"/>
  </vehicle>
  <vehicle depart="184.00" id="v184">
    <route edges="e0 e1 e11 e2 e12 e27 e28 e29 e37 e49 e42 e41 e44"/>
  </vehicle>
  <vehicle depart="185.00" id="v185">
    <route edges="e5 e9 e12 e27 e23 e25 e26 e29 e32 e31 e30 e33 e48 e45 e47 e44"/>
  </vehicle>
  <vehicle depart="186.00" id="v186">
    <route edges="e3 e5 e8 e6 e2 e12 e13 e14 e15 e16 e17 e18 e19 e20 e21 e33 e39 e38 e49 e43"/>
  </vehicle>
  <vehicle depart="187.00" id="v187">
    <route edges="e0 e1 e11 e22 e23 e25 e26 e29 e37 e49 e42 e46 e45 e47 e44"/>
  </vehicle>
  <vehicle depart="188.00" id="v188">
    <route edges="e5 e9 e12 e27 e23 e25 e26 e29 e32 e31 e30 e33 e48 e45 e47 e44"/>
  </vehicle>
  <vehicle depart="189.00" id="v189">
    <route edges="e5 e9 e12 e13 e14 e15 e16 e17 e18 e19 e20 e21 e33 e48 e45 e47 e44"/>
  </vehicle>
  <vehicle depart="190.00" id="v190">
    <route edges="e3 e5 e8 e6 e2 e12 e13 e14 e15 e16 e17 e18 e19 e20 e21 e33 e39 e40 e46 e45 e47 e44"/>
  </vehicle>
  <vehicle depart="191.00" id="v191">
    <route edges="e3 e5 e9 e12 e13 e14 e15 e16 e17 e18 e19 e20 e21 e33 e48 e45 e47 e44"/>
  </vehicle>
  <vehicle depart="192.00" id="v192">
    <route edges="e0 e1 e11 e2 e12 e13 e14 e15 e16 e17 e18 e19 e20 e21 e33 e48 e45 e47 e44"/>
  </vehicle>
  <vehicle depart="193.00" id="v193">
    <route edges="e5 e9 e12 e13 e14 e15 e16 e17 e18 e19 e20 e21 e33 e48 e45 e47 e44"/>
  </vehicle>
  <vehicle depart="194.00" id="v194">
    <route edges="e0 e1 e11 e2 e12 e27 e23 e25 e26 e29 e34 e35 e33 e48 e45 e47 e44"/>
  </vehicle>
  <vehicle depart="195.00" id="v195">
    <route edges="e4 e7 e1 e24 e29 e34 e35 e33 e39 e38 e49 e43"/>
  </vehicle>
  <vehicle depart="196.00" id="v196">
    <route edges="e5 e8 e6 e2 e12 e13 e14 e15 e16 e17 e18 e19 e20 e21 e33 e39 e38 e49 e43"/>
  </vehicle>
  <vehicle depart="197.00" id="v197">
    <route edges="e3 e5 e8 e7 e1 e11 e2 e12 e27 e23 e25 e26 e29 e34 e35 e33 e48 e45 e47 e44"/>
  </vehicle>
  <vehicle depart="198.00" id="v198">
    <route edges="e5 e9 e12 e13 e14 e15 e16 e17 e18 e19 e20 e21 e33 e39 e40 e46 e45 e47 e44"/>
  </vehicle>
  <vehicle depart="199.00" id="v199">
    <route edges="e10 e3 e5 e8 e6 e22 e28 e29 e37 e49 e43"/>
  </vehicle>
  <vehicle depart="200.00" id="v200">
    <route edges="e0 e1 e24 e29 e34 e36 e40 e41 e44"/>
  </vehicle>
  <vehicle depart="201.00" id="v201">
    <route edges="e5 e9 e12 e27 e23 e25 e26 e29 e34 e35 e33 e48 e45 e47 e44"/>
  </vehicle>
  <vehicle depart="202.00" id="v202">
    <route edges="e5 e9 e12 e13 e14 e15 e16 e17 e18 e19 e20 e21 e33 e39 e40 e41 e44"/>
  </vehicle>
  <vehicle depart="203.00" id="v203">
    <route edges="e0 e1 e24 e29 e37 e49 e43"/>
  </vehicle>
  <vehicle depart="204.00" id="v204">
    <route edges="e10 e4 e7 e1 e24 e29 e37 e49 e42 e41 e44"/>
  </vehicle>
  <vehicle depart="205.00" id="v205">
    <route edges="e0 e1 e11 e2 e12 e13 e14 e15 e16 e17 e18 e19 e20 e21 e33 e48 e45 e47 e44"/>
  </vehicle>
  <vehicle depart="206.00" id="v206">
    <route edges="e3 e5 e8 e6 e2 e12 e13 e14 e15 e16 e17 e18 e19 e20 e21 e33 e39 e40 e41 e44"/>
  </vehicle>
  <vehicle depart="207.00" id="v207">
    <route edges="e4 e6 e22 e28 e29 e37 e49 e43"/>
  </vehicle>
  <vehicle depart="208.00" id="v208">
    <route edges="e3 e5 e8 e7 e1 e24 e29 e32 e31 e30 e33 e39 e38 e49 e43"/>
  </vehicle>
  <vehicle depart="209.00" id="v209">
    <route edges="e3 e5 e9 e12 e13 e14 e15 e16 e17 e18 e19 e20 e21 e33 e48 e45 e47 e44"/>
  </vehicle>
  <vehicle depart="210.00" id="v210">
    <route edges="e4 e6 e22 e28 e29 e37 e49 e43"/>
  </vehicle>
  <vehicle depart="211.00" id="v211">
    <route edges="e5 e8 e6 e22 e28 e29 e37 e49 e42 e41 e44"/>
  </vehicle>
  <vehicle depart="212.00" id="v212">
    <route edges="e0 e1 e24 e29 e37 e49 e42 e41 e44"/>
  </vehicle>
  <vehicle depart="213.00" id="v213">
    <route edges="e5 e8 e7 e1 e11 e22 e28 e29 e37 e49 e42 e41 e44"/>
  </vehicle>
  <vehicle depart="214.00" id="v214">
    <route edges="e3 e5 e9 e12 e27 e23 e25 e26 e29 e37 e49 e43"/>
  </vehicle>
  <vehicle depart="215.00" id="v215">
    <route edges="e0 e1 e24 e29 e32 e31 e30 e33 e48 e45 e47 e44"/>
  </vehicle>
  <vehicle depart="216.00" id="v216">
    <route edges="e10 e3 e5 e9 e12 e27 e23 e25 e26 e29 e37 e49 e42 e46 e45 e47 e44"/>
  </vehicle>
  <vehicle depart="217.00" id="v217">
    <route edges="e0 e1 e24 e29 e37 e49 e42 e41 e44"/>
  </vehicle>
  <vehicle depart="218.00" id="v218">
    <route edges="e5 e8 e7 e1 e24 e29 e32 e31 e30 e33 e48 e45 e47 e44"/>
  </vehicle>
  <vehicle depart="219.00" id="v219">
    <route edges="e5 e9 e12 e27 e23 e25 e26 e29 e37 e49 e43"/>
  </vehicle>
  <vehicle depart="220.00" id="v220">
    <route edges="e0 e1 e24 e29 e34 e36 e38 e49 e42 e46 e45 e47 e44"/>
  </vehicle>
  <vehicle depart="221.00" id="v221">
    <route edges="e3 e5 e9 e12 e27 e28 e29 e32 e31 e30 e33 e39 e40 e41 e44"/>
  </vehicle>
  <vehicle depart="222.00" id="v222">
    <route edges="e0 e1 e24 e29 e34 e36 e38 e49 e42 e46 e45 e47 e44"/>
  </vehicle>
  <vehicle depart="223.00" id="v223">
    <route edges="e5 e8 e6 e22 e28 e29 e34 e36 e40 e41 e44"/>
  </vehicle>
  <vehicle depart="224.00" id="v224">
    <route edges="e5 e8 e6 e2 e12 e13 e14 e15 e16 e17 e18 e19 e20 e21 e33 e39 e40 e41 e44"/>
  </vehicle>
  <vehicle depart="225.00" id="v225">
    <route edges="e4 e7 e1 e11 e2 e12 e27 e23 e25 e26 e29 e34 e35 e33 e48 e45 e47 e44"/>
  </vehicle>
  <vehicle depart="226.00" id="v226">
    <route edges="e0 e1 e24 e29 e32 e31 e30 e33 e39 e38 e49 e42 e46 e45 e47 e44"/>
  </vehicle>
  <vehicle depart="227.00" id="v227">
    <route edges="e0 e1 e11 e2 e12 e27 e23 e25 e26 e29 e37 e49 e42 e41 e44"/>
  </vehicle>
  <vehicle depart="228.00" id="v228">
    <route edges="e5 e9 e12 e13 e14 e15 e16 e17 e18 e19 e20 e21 e33 e48 e45 e47 e44"/>
  </vehicle>
  <vehicle depart="229.00" id="v229">
    <route edges="e0 e1 e24 e29 e34 e35 e33 e48 e45 e47 e44"/>
  </vehicle>
  <vehicle depart="230.00" id="v230">
    <route edges="e10 e3 e5 e9 e12 e27 e23 e25 e26 e29 e34 e36 e38 e49 e42 e46 e45 e47 e44"/>
  </vehicle>
  <vehicle depart="231.00" id="v231">
    <route edges="e0 e1 e11 e2 e12 e13 e14 e15 e16 e17 e18 e19 e20 e21 e33 e48 e45 e47 e44"/>
  </vehicle>
  <vehicle depart="232.00" id="v232">
    <route edges="e10 e3 e5 e9 e12 e27 e23 e25 e26 e29 e34 e35 e33 e39 e38 e49 e42 e46 e45 e47 e44"/>
  </vehicle>
  <vehicle depart="233.00" id="v233">
    <route edges="e3 e5 e9 e12 e13 e14 e15 e16 e17 e18 e19 e20 e21 e33 e48 e45 e47 e44"/>
  </vehicle>
  <vehicle depart="234.00" id="v234">
    <route edges="e0 e1 e11 e22 e28 e29 e32 e31 e30 e33 e39 e40 e46 e45 e47 e44"/>
  </vehicle>
  <vehicle depart="235.00" id="v235">