<?xml version="1.0" encoding="UTF-8"?>

<!-- generated on Wed Jul 29 01:03:00 2020 by Eclipse SUMO netconvert Version 1.6.0
<configuration xmlns:xsi="http://www.w3.org/2001/XMLSchema-instance" xsi:noNamespaceSchemaLocation="http://sumo.dlr.de/xsd/netconvertConfiguration.xsd">

    <input>
        <node-files value="/home/alberto/Dropbox/alberto/projects/frigate/frigate/data/test/nodes.nod.xml"/>
        <edge-files value="/home/alberto/Dropbox/alberto/projects/frigate/frigate/data/test/edges.edg.xml"/>
    </input>

    <output>
        <output-file value="/home/alberto/Dropbox/alberto/projects/frigate/frigate/data/test/roadnet.net.xml"/>
    </output>

    <report>
        <aggregate-warnings value="5"/>
    </report>

</configuration>
-->

<net version="1.6" junctionCornerDetail="5" limitTurnSpeed="5.50" xmlns:xsi="http://www.w3.org/2001/XMLSchema-instance" xsi:noNamespaceSchemaLocation="http://sumo.dlr.de/xsd/net_file.xsd">

    <location netOffset="745.79,238.53" convBoundary="0.00,0.00,1413.24,683.84" origBoundary="-745.79,-238.53,667.45,445.31" projParameter="!"/>

    <edge id=":n0_0" function="internal">
        <lane id=":n0_0_0" index="0" speed="3.95" length="2.03" shape="-1.59,204.53 -1.59,204.00 -1.44,203.54 -1.14,203.17 -0.69,202.88"/>
    </edge>
    <edge id=":n1_0" function="internal">
        <lane id=":n1_0_0" index="0" speed="13.89" length="11.79" shape="10.22,281.45 8.71,278.60 7.87,276.11 7.39,273.49 6.98,270.25"/>
    </edge>
    <edge id=":n1_1" function="internal">
        <lane id=":n1_1_0" index="0" speed="6.07" length="9.40" shape="10.22,281.45 9.22,279.06 9.41,277.10 10.79,275.58 13.36,274.51"/>
    </edge>
    <edge id=":n10_0" function="internal">
        <lane id=":n10_0_0" index="0" speed="7.17" length="9.76" shape="405.83,186.74 406.92,188.88 408.59,190.28 410.84,190.94 413.68,190.86"/>
    </edge>
    <edge id=":n10_1" function="internal">
        <lane id=":n10_1_0" index="0" speed="13.89" length="11.68" shape="405.83,186.74 406.91,189.79 408.11,192.11 409.73,194.14 412.11,196.33"/>
    </edge>
    <edge id=":n10_2" function="internal">
        <lane id=":n10_2_0" index="0" speed="13.89" length="11.55" shape="402.25,192.57 413.68,190.86"/>
    </edge>
    <edge id=":n10_3" function="internal">
        <lane id=":n10_3_0" index="0" speed="10.19" length="10.86" shape="402.25,192.57 404.57,192.53 406.98,193.14 409.50,194.41 412.11,196.33"/>
    </edge>
    <edge id=":n11_0" function="internal">
        <lane id=":n11_0_0" index="0" speed="6.75" length="9.21" shape="554.12,309.11 554.07,311.78 554.76,313.85 556.18,315.31 558.34,316.18"/>
    </edge>
    <edge id=":n11_1" function="internal">
        <lane id=":n11_1_0" index="0" speed="13.89" length="14.30" shape="545.88,309.45 548.75,311.71 551.71,313.62 554.87,315.12 558.34,316.18"/>
    </edge>
    <edge id=":n11_2" function="internal">
        <lane id=":n11_2_0" index="0" speed="13.89" length="14.49" shape="543.96,314.62 547.63,314.73 551.19,315.01 554.73,315.48 558.34,316.18"/>
    </edge>
    <edge id=":n12_0" function="internal">
        <lane id=":n12_0_0" index="0" speed="4.16" length="1.32" shape="512.91,176.68 513.25,176.66 513.57,176.71 513.87,176.83 514.15,177.02"/>
    </edge>
    <edge id=":n13_0" function="internal">
        <lane id=":n13_0_0" index="0" speed="4.03" length="1.64" shape="565.95,219.35 566.25,219.65 566.44,220.00 566.53,220.38 566.52,220.81"/>
    </edge>
    <edge id=":n14_0" function="internal">
        <lane id=":n14_0_0" index="0" speed="13.89" length="0.31" shape="462.18,8.55 462.27,8.52 462.33,8.51 462.39,8.50 462.48,8.49"/>
    </edge>
    <edge id=":n15_0" function="internal">
        <lane id=":n15_0_0" index="0" speed="13.89" length="3.12" shape="563.29,-0.48 566.41,-0.52"/>
    </edge>
    <edge id=":n16_0" function="internal">
        <lane id=":n16_0_0" index="0" speed="13.89" length="0.17" shape="660.14,-1.60 660.19,-1.60 660.23,-1.60 660.26,-1.60 660.31,-1.59"/>
    </edge>
    <edge id=":n17_0" function="internal">
        <lane id=":n17_0_0" index="0" speed="13.89" length="0.23" shape="765.41,8.41 765.48,8.42 765.53,8.42 765.57,8.43 765.64,8.45"/>
    </edge>
    <edge id=":n18_0" function="internal">
        <lane id=":n18_0_0" index="0" speed="13.89" length="3.14" shape="867.67,33.19 870.65,34.18"/>
    </edge>
    <edge id=":n19_0" function="internal">
        <lane id=":n19_0_0" index="0" speed="13.89" length="0.53" shape="959.63,63.95 959.78,64.00 959.88,64.04 959.97,64.10 960.10,64.19"/>
    </edge>
    <edge id=":n20_0" function="internal">
        <lane id=":n20_0_0" index="0" speed="13.89" length="3.25" shape="1037.77,123.44 1038.51,124.05 1038.96,124.53 1039.39,125.04 1040.04,125.75"/>
    </edge>
    <edge id=":n21_0" function="internal">
        <lane id=":n21_0_0" index="0" speed="13.89" length="0.24" shape="1103.94,191.63 1103.99,191.68 1104.03,191.72 1104.06,191.76 1104.10,191.82"/>
    </edge>
    <edge id=":n22_0" function="internal">
        <lane id=":n22_0_0" index="0" speed="13.89" length="11.67" shape="1149.30,255.33 1156.20,264.74"/>
    </edge>
    <edge id=":n22_1" function="internal">
        <lane id=":n22_1_0" index="0" speed="9.76" length="12.48" shape="1144.37,261.75 1147.71,261.76 1151.23,262.35 1154.28,263.39 1156.20,264.74"/>
    </edge>
    <edge id=":n22_2" function="internal">
        <lane id=":n22_2_0" index="0" speed="5.97" length="9.62" shape="1147.89,267.18 1149.55,265.43 1151.93,264.17 1154.36,263.81 1156.20,264.74"/>
    </edge>
    <edge id=":n23_0" function="internal">
        <lane id=":n23_0_0" index="0" speed="13.89" length="3.53" shape="970.27,325.92 970.90,325.08 971.30,324.47 971.77,323.93 972.60,323.32"/>
    </edge>
    <edge id=":n24_0" function="internal">
        <lane id=":n24_0_0" index="0" speed="13.89" length="0.72" shape="1058.01,271.00 1058.19,270.89 1058.32,270.83 1058.46,270.80 1058.67,270.77"/>
    </edge>
    <edge id=":n25_0" function="internal">
        <lane id=":n25_0_0" index="0" speed="7.87" length="8.57" shape="908.03,393.98 909.71,394.01 911.47,393.37 913.32,392.07 915.25,390.10"/>
    </edge>
    <edge id=":n25_1" function="internal">
        <lane id=":n25_1_0" index="0" speed="13.89" length="11.17" shape="908.03,393.98 911.12,394.53 913.54,394.66 915.97,394.49 919.12,394.17"/>
    </edge>
    <edge id=":n25_2" function="internal">
        <lane id=":n25_2_0" index="0" speed="13.89" length="11.10" shape="908.03,393.98 911.06,394.77 913.28,395.67 915.36,396.90 917.97,398.66"/>
    </edge>
    <edge id=":n26_0" function="internal">
        <lane id=":n26_0_0" index="0" speed="7.69" length="6.85" shape="1080.85,378.46 1082.24,378.09 1083.56,377.27 1084.80,376.00 1085.97,374.28"/>
    </edge>
    <edge id=":n26_1" function="internal">
        <lane id=":n26_1_0" index="0" speed="8.38" length="6.77" shape="1080.85,378.46 1082.89,378.38 1084.65,378.60 1086.11,379.09 1087.28,379.87"/>
    </edge>
    <edge id=":n27_0" function="internal">
        <lane id=":n27_0_0" index="0" speed="5.76" length="9.17" shape="1105.12,519.02 1102.87,520.53 1101.99,522.18 1102.48,524.00 1104.33,525.96"/>
    </edge>
    <edge id=":n27_1" function="internal">
        <lane id=":n27_1_0" index="0" speed="13.89" length="13.17" shape="1093.86,517.97 1104.33,525.96"/>
    </edge>
    <edge id=":n28_0" function="internal">
        <lane id=":n28_0_0" index="0" speed="6.57" length="9.21" shape="1197.41,471.19 1196.01,473.24 1195.62,475.26 1196.24,477.27 1197.87,479.27"/>
    </edge>
    <edge id=":n28_1" function="internal">
        <lane id=":n28_1_0" index="0" speed="13.89" length="11.68" shape="1197.41,471.19 1195.21,473.59 1193.35,475.43 1191.28,477.00 1188.47,478.56"/>
    </edge>
    <edge id=":n28_2" function="internal">
        <lane id=":n28_2_0" index="0" speed="13.89" length="11.43" shape="1189.46,471.53 1197.87,479.27"/>
    </edge>
    <edge id=":n28_3" function="internal">
        <lane id=":n28_3_0" index="0" speed="5.82" length="9.11" shape="1189.46,471.53 1191.17,473.56 1191.58,475.41 1190.68,477.08 1188.47,478.56"/>
    </edge>
    <edge id=":n29_0" function="internal">
        <lane id=":n29_0_0" index="0" speed="13.89" length="9.98" shape="1258.96,397.65 1265.42,405.26"/>
    </edge>
    <edge id=":n29_1" function="internal">
        <lane id=":n29_1_0" index="0" speed="6.67" length="8.34" shape="1258.96,397.65 1260.04,399.56 1260.33,401.46 1259.81,403.34 1258.50,405.20"/>
    </edge>
    <edge id=":n3_0" function="internal">
        <lane id=":n3_0_0" index="0" speed="13.89" length="11.35" shape="78.83,164.99 81.72,163.66 84.02,162.69 86.36,161.81 89.34,160.71"/>
    </edge>
    <edge id=":n3_1" function="internal">
        <lane id=":n3_1_0" index="0" speed="6.15" length="9.06" shape="78.83,164.99 81.27,164.23 83.23,164.51 84.71,165.81 85.72,168.15"/>
    </edge>
    <edge id=":n30_0" function="internal">
        <lane id=":n30_0_0" index="0" speed="7.01" length="8.05" shape="1222.29,620.83 1223.95,621.77 1225.75,622.04 1227.69,621.63 1229.78,620.56"/>
    </edge>
    <edge id=":n30_1" function="internal">
        <lane id=":n30_1_0" index="0" speed="13.89" length="9.25" shape="1222.29,620.83 1229.62,626.48"/>
    </edge>
    <edge id=":n31_0" function="internal">
        <lane id=":n31_0_0" index="0" speed="6.48" length="9.07" shape="1295.85,570.65 1297.90,572.08 1299.90,572.51 1301.86,571.93 1303.77,570.34"/>
    </edge>
    <edge id=":n31_1" function="internal">
        <lane id=":n31_1_0" index="0" speed="13.89" length="11.35" shape="1295.85,570.65 1304.06,578.49"/>
    </edge>
    <edge id=":n31_2" function="internal">
        <lane id=":n31_2_0" index="0" speed="13.89" length="11.58" shape="1295.20,578.07 1297.84,576.23 1299.80,574.57 1301.61,572.73 1303.77,570.34"/>
    </edge>
    <edge id=":n31_3" function="internal">
        <lane id=":n31_3_0" index="0" speed="7.28" length="9.70" shape="1295.20,578.07 1297.67,576.85 1299.97,576.51 1302.10,577.06 1304.06,578.49"/>
    </edge>
    <edge id=":n32_0" function="internal">
        <lane id=":n32_0_0" index="0" speed="13.89" length="11.38" shape="1354.95,505.62 1357.07,507.99 1358.72,509.88 1360.30,511.82 1362.19,514.38"/>
    </edge>
    <edge id=":n32_1" function="internal">
        <lane id=":n32_1_0" index="0" speed="6.10" length="9.06" shape="1354.69,513.97 1356.66,512.33 1358.57,511.85 1360.41,512.53 1362.19,514.38"/>
    </edge>
    <edge id=":n34_0" function="internal">
        <lane id=":n34_0_0" index="0" speed="13.89" length="11.84" shape="1376.35,642.48 1374.45,645.16 1372.79,647.26 1370.84,649.05 1368.12,650.80"/>
    </edge>
    <edge id=":n34_1" function="internal">
        <lane id=":n34_1_0" index="0" speed="6.10" length="9.49" shape="1368.76,643.12 1370.49,645.36 1370.96,647.39 1370.17,649.20 1368.12,650.80"/>
    </edge>
    <edge id=":n35_0" function="internal">
        <lane id=":n35_0_0" index="0" speed="3.95" length="2.00" shape="1414.54,586.94 1414.79,587.40 1414.87,587.87 1414.79,588.33 1414.54,588.80"/>
    </edge>
    <edge id=":n4_0" function="internal">
        <lane id=":n4_0_0" index="0" speed="6.62" length="9.06" shape="106.26,243.87 107.23,246.11 108.71,247.54 110.68,248.15 113.16,247.95"/>
    </edge>
    <edge id=":n4_1" function="internal">
        <lane id=":n4_1_0" index="0" speed="13.89" length="11.31" shape="106.26,243.87 107.09,246.93 107.82,249.31 108.72,251.62 110.09,254.47"/>
    </edge>
    <edge id=":n4_2" function="internal">
        <lane id=":n4_2_0" index="0" speed="13.89" length="11.02" shape="102.44,250.51 113.16,247.95"/>
    </edge>
    <edge id=":n4_3" function="internal">
        <lane id=":n4_3_0" index="0" speed="7.18" length="9.43" shape="102.44,250.51 104.78,250.26 106.83,250.84 108.60,252.24 110.09,254.47"/>
    </edge>
    <edge id=":n5_0" function="internal">
        <lane id=":n5_0_0" index="0" speed="7.09" length="7.92" shape="146.81,326.47 148.06,328.43 149.51,329.78 151.15,330.49 152.98,330.59"/>
    </edge>
    <edge id=":n5_1" function="internal">
        <lane id=":n5_1_0" index="0" speed="13.89" length="9.00" shape="144.03,331.51 152.98,330.59"/>
    </edge>
    <edge id=":n6_0" function="internal">
        <lane id=":n6_0_0" index="0" speed="5.33" length="5.05" shape="216.50,117.06 216.24,115.77 216.45,114.63 217.12,113.66 218.25,112.85"/>
    </edge>
    <edge id=":n6_1" function="internal">
        <lane id=":n6_1_0" index="0" speed="13.89" length="6.20" shape="212.53,115.20 214.26,114.59 215.45,114.17 216.61,113.68 218.25,112.85"/>
    </edge>
    <edge id=":n7_0" function="internal">
        <lane id=":n7_0_0" index="0" speed="13.89" length="11.94" shape="254.75,222.43 253.09,219.61 251.94,217.18 250.98,214.65 249.90,211.55"/>
    </edge>
    <edge id=":n7_1" function="internal">
        <lane id=":n7_1_0" index="0" speed="5.80" length="9.14" shape="254.75,222.43 253.63,219.99 253.74,218.10 255.07,216.77 257.64,215.98"/>
    </edge>
    <edge id=":n7_2" function="internal">
        <lane id=":n7_2_0" index="0" speed="6.26" length="9.04" shape="246.17,218.29 248.52,217.40 249.93,215.97 250.39,214.03 249.90,211.55"/>
    </edge>
    <edge id=":n7_3" function="internal">
        <lane id=":n7_3_0" index="0" speed="13.89" length="11.70" shape="246.17,218.29 257.64,215.98"/>
    </edge>
    <edge id=":n8_0" function="internal">
        <lane id=":n8_0_0" index="0" speed="5.74" length="9.18" shape="305.98,313.47 308.62,312.81 309.99,311.54 310.11,309.67 308.97,307.21"/>
    </edge>
    <edge id=":n8_1" function="internal">
        <lane id=":n8_1_0" index="0" speed="13.89" length="13.33" shape="305.98,313.47 309.45,313.08 312.61,312.75 315.77,312.54 319.26,312.49"/>
    </edge>
    <edge id=":n9_0" function="internal">
        <lane id=":n9_0_0" index="0" speed="13.89" length="11.51" shape="353.12,40.87 355.99,39.45 358.35,38.51 360.79,37.75 363.88,36.87"/>
    </edge>
    <edge id=":n9_1" function="internal">
        <lane id=":n9_1_0" index="0" speed="6.17" length="9.13" shape="353.12,40.87 355.52,40.01 357.49,40.22 359.05,41.48 360.17,43.81"/>
    </edge>

    <edge id="e0" from="n2" to="n5" priority="1">
        <lane id="e0_0" index="0" speed="13.89" length="95.73" shape="48.70,340.26 144.03,331.51"/>
    </edge>
    <edge id="e1" from="n5" to="n8" priority="1">
        <lane id="e1_0" index="0" speed="13.89" length="153.96" shape="152.98,330.59 305.98,313.47"/>
    </edge>
    <edge id="e10" from="n2" to="n1" priority="1">
        <lane id="e10_0" index="0" speed="13.89" length="66.64" shape="44.91,338.35 10.22,281.45"/>
    </edge>
    <edge id="e11" from="n8" to="n7" priority="1">
        <lane id="e11_0" index="0" speed="13.89" length="100.63" shape="308.97,307.21 254.75,222.43"/>
    </edge>
    <edge id="e12" from="n6" to="n9" priority="1">
        <lane id="e12_0" index="0" speed="13.89" length="152.87" shape="218.25,112.85 353.12,40.87"/>
    </edge>
    <edge id="e13" from="n9" to="n14" priority="1">
        <lane id="e13_0" index="0" speed="13.89" length="102.30" shape="363.88,36.87 462.18,8.55"/>
    </edge>
    <edge id="e14" from="n14" to="n15" priority="1">
        <lane id="e14_0" index="0" speed="13.89" length="101.21" shape="462.48,8.49 563.29,-0.48"/>
    </edge>
    <edge id="e15" from="n15" to="n16" priority="1">
        <lane id="e15_0" index="0" speed="13.89" length="93.73" shape="566.41,-0.52 660.14,-1.60"/>
    </edge>
    <edge id="e16" from="n16" to="n17" priority="1">
        <lane id="e16_0" index="0" speed="13.89" length="105.57" shape="660.31,-1.59 765.41,8.41"/>
    </edge>
    <edge id="e17" from="n17" to="n18" priority="1">
        <lane id="e17_0" index="0" speed="13.89" length="104.99" shape="765.64,8.45 867.67,33.19"/>
    </edge>
    <edge id="e18" from="n18" to="n19" priority="1">
        <lane id="e18_0" index="0" speed="13.89" length="93.83" shape="870.65,34.18 959.63,63.95"/>
    </edge>
    <edge id="e19" from="n19" to="n20" priority="1">
        <lane id="e19_0" index="0" speed="13.89" length="97.69" shape="960.10,64.19 1037.77,123.44"/>
    </edge>
    <edge id="e2" from="n7" to="n6" priority="1">
        <lane id="e2_0" index="0" speed="13.89" length="100.22" shape="249.90,211.55 216.50,117.06"/>
    </edge>
    <edge id="e20" from="n20" to="n21" priority="1">
        <lane id="e20_0" index="0" speed="13.89" length="91.79" shape="1040.04,125.75 1103.94,191.63"/>
    </edge>
    <edge id="e21" from="n21" to="n22" priority="1">
        <lane id="e21_0" index="0" speed="13.89" length="77.95" shape="1104.10,191.82 1149.30,255.33"/>
    </edge>
    <edge id="e22" from="n7" to="n10" priority="1">
        <lane id="e22_0" index="0" speed="13.89" length="146.50" shape="257.64,215.98 402.25,192.57"/>
    </edge>
    <edge id="e23" from="n10" to="n12" priority="1">
        <lane id="e23_0" index="0" speed="13.89" length="100.24" shape="413.68,190.86 512.91,176.68"/>
    </edge>
    <edge id="e24" from="n8" to="n11" priority="1">
        <lane id="e24_0" index="0" speed="13.89" length="224.71" shape="319.26,312.49 543.96,314.62"/>
    </edge>
    <edge id="e25" from="n12" to="n13" priority="1">
        <lane id="e25_0" index="0" speed="13.89" length="66.89" shape="514.15,177.02 565.95,219.35"/>
    </edge>
    <edge id="e26" from="n13" to="n11" priority="1">
        <lane id="e26_0" index="0" speed="13.89" length="89.17" shape="566.52,220.81 554.12,309.11"/>
    </edge>
    <edge id="e27" from="n9" to="n10" priority="1">
        <lane id="e27_0" index="0" speed="13.89" length="150.04" shape="360.17,43.81 405.83,186.74"/>
    </edge>
    <edge id="e28" from="n10" to="n11" priority="1">
        <lane id="e28_0" index="0" speed="13.89" length="175.19" shape="412.11,196.33 545.88,309.45"/>
    </edge>
    <edge id="e29" from="n11" to="n25" priority="1">
        <lane id="e29_0" index="0" speed="13.89" length="358.24" shape="558.34,316.18 908.03,393.98"/>
    </edge>
    <edge id="e3" from="n1" to="n0" priority="1">
        <lane id="e3_0" index="0" speed="13.89" length="66.27" shape="6.98,270.25 -1.59,204.53"/>
    </edge>
    <edge id="e30" from="n24" to="n22" priority="1">
        <lane id="e30_0" index="0" speed="13.89" length="86.17" shape="1058.67,270.77 1144.37,261.75"/>
    </edge>
    <edge id="e31" from="n23" to="n24" priority="1">
        <lane id="e31_0" index="0" speed="13.89" length="100.16" shape="972.60,323.32 1058.01,271.00"/>
    </edge>
    <edge id="e32" from="n25" to="n23" priority="1">
        <lane id="e32_0" index="0" speed="13.89" length="84.54" shape="915.25,390.10 970.27,325.92"/>
    </edge>
    <edge id="e33" from="n22" to="n29" priority="1">
        <lane id="e33_0" index="0" speed="13.89" length="168.00" shape="1156.20,264.74 1258.96,397.65"/>
    </edge>
    <edge id="e34" from="n25" to="n26" priority="1">
        <lane id="e34_0" index="0" speed="13.89" length="162.49" shape="919.12,394.17 1080.85,378.46"/>
    </edge>
    <edge id="e35" from="n26" to="n22" priority="1">
        <lane id="e35_0" index="0" speed="13.89" length="123.71" shape="1085.97,374.28 1147.89,267.18"/>
    </edge>
    <edge id="e36" from="n26" to="n28" priority="1">
        <lane id="e36_0" index="0" speed="13.89" length="137.26" shape="1087.28,379.87 1189.46,471.53"/>
    </edge>
    <edge id="e37" from="n25" to="n27" priority="1">
        <lane id="e37_0" index="0" speed="13.89" length="212.54" shape="917.97,398.66 1093.86,517.97"/>
    </edge>
    <edge id="e38" from="n28" to="n27" priority="1">
        <lane id="e38_0" index="0" speed="13.89" length="92.65" shape="1188.47,478.56 1105.12,519.02"/>
    </edge>
    <edge id="e39" from="n29" to="n28" priority="1">
        <lane id="e39_0" index="0" speed="13.89" length="89.93" shape="1258.50,405.20 1197.41,471.19"/>
    </edge>
    <edge id="e4" from="n1" to="n4" priority="1">
        <lane id="e4_0" index="0" speed="13.89" length="92.26" shape="13.36,274.51 102.44,250.51"/>
    </edge>
    <edge id="e40" from="n28" to="n31" priority="1">
        <lane id="e40_0" index="0" speed="13.89" length="133.98" shape="1197.87,479.27 1295.85,570.65"/>
    </edge>
    <edge id="e41" from="n31" to="n34" priority="1">
        <lane id="e41_0" index="0" speed="13.89" length="91.45" shape="1304.06,578.49 1368.76,643.12"/>
    </edge>
    <edge id="e42" from="n30" to="n31" priority="1">
        <lane id="e42_0" index="0" speed="13.89" length="78.01" shape="1229.78,620.56 1295.20,578.07"/>
    </edge>
    <edge id="e43" from="n30" to="n33" priority="1">
        <lane id="e43_0" index="0" speed="13.89" length="94.96" shape="1229.62,626.48 1306.27,682.54"/>
    </edge>
    <edge id="e44" from="n34" to="n33" priority="1">
        <lane id="e44_0" index="0" speed="13.89" length="65.92" shape="1368.12,650.80 1310.49,682.80"/>
    </edge>
    <edge id="e45" from="n32" to="n35" priority="1">
        <lane id="e45_0" index="0" speed="13.89" length="89.47" shape="1362.19,514.38 1414.54,586.94"/>
    </edge>
    <edge id="e46" from="n31" to="n32" priority="1">
        <lane id="e46_0" index="0" speed="13.89" length="75.97" shape="1303.77,570.34 1354.69,513.97"/>
    </edge>
    <edge id="e47" from="n35" to="n34" priority="1">
        <lane id="e47_0" index="0" speed="13.89" length="65.88" shape="1414.54,588.80 1376.35,642.48"/>
    </edge>
    <edge id="e48" from="n29" to="n32" priority="1">
        <lane id="e48_0" index="0" speed="13.89" length="134.49" shape="1265.42,405.26 1354.95,505.62"/>
    </edge>
    <edge id="e49" from="n27" to="n30" priority="1">
        <lane id="e49_0" index="0" speed="13.89" length="151.38" shape="1104.33,525.96 1222.29,620.83"/>
    </edge>
    <edge id="e5" from="n0" to="n3" priority="1">
        <lane id="e5_0" index="0" speed="13.89" length="88.09" shape="-0.69,202.88 78.83,164.99"/>
    </edge>
    <edge id="e6" from="n4" to="n7" priority="1">
        <lane id="e6_0" index="0" speed="13.89" length="136.27" shape="113.16,247.95 246.17,218.29"/>
    </edge>
    <edge id="e7" from="n4" to="n5" priority="1">
        <lane id="e7_0" index="0" speed="13.89" length="80.82" shape="110.09,254.47 146.81,326.47"/>
    </edge>
    <edge id="e8" from="n3" to="n4" priority="1">
        <lane id="e8_0" index="0" speed="13.89" length="78.45" shape="85.72,168.15 106.26,243.87"/>
    </edge>
    <edge id="e9" from="n3" to="n6" priority="1">
        <lane id="e9_0" index="0" speed="13.89" length="131.32" shape="89.34,160.71 212.53,115.20"/>
    </edge>

    <junction id="n0" type="unregulated" x="0.00" y="204.33" incLanes="e3_0" intLanes=":n0_0_0" shape="-3.17,204.74 0.00,204.33 -1.38,201.44 -2.51,202.25 -2.87,202.76 -3.11,203.35 -3.21,204.01"/>
    <junction id="n1" type="unregulated" x="9.50" y="277.21" incLanes="e10_0" intLanes=":n1_0_0 :n1_1_0" shape="8.85,282.29 11.59,280.62 10.90,278.60 11.09,277.77 11.64,277.07 12.53,276.50 13.78,276.05 12.95,272.96 10.74,273.10 9.92,272.75 9.28,272.13 8.83,271.22 8.57,270.04 5.40,270.45 5.71,273.09 5.93,275.07 6.22,276.69 6.71,278.24 7.54,280.01"/>
    <junction id="n10" type="unregulated" x="406.32" y="193.53" incLanes="e27_0 e22_0" intLanes=":n10_0_0 :n10_1_0 :n10_2_0 :n10_3_0" shape="411.07,197.55 413.14,195.11 412.08,193.84 412.04,193.35 412.33,192.95 412.95,192.65 413.90,192.44 413.45,189.28 410.59,189.25 409.47,188.87 408.56,188.24 407.85,187.37 407.35,186.25 404.30,187.23 404.50,189.08 404.24,189.78 403.73,190.33 402.99,190.73 401.99,190.99 402.51,194.15 405.15,194.25 406.55,194.69 408.01,195.38 409.51,196.34"/>
    <junction id="n11" type="unregulated" x="551.50" y="316.29" incLanes="e26_0 e28_0 e24_0" intLanes=":n11_0_0 :n11_1_0 :n11_2_0" shape="557.99,317.74 558.68,314.61 556.75,313.67 556.14,312.89 555.76,311.91 555.61,310.72 555.71,309.33 552.54,308.89 551.68,310.44 550.88,310.55 549.81,310.22 548.49,309.45 546.92,308.23 544.85,310.67 546.01,311.99 546.04,312.45 545.72,312.78 545.03,312.97 543.98,313.02 543.95,316.22 546.96,316.25 549.19,316.30 551.03,316.43 552.85,316.68 555.05,317.10"/>
    <junction id="n12" type="unregulated" x="513.14" y="178.26" incLanes="e23_0" intLanes=":n12_0_0" shape="513.14,178.26 515.16,175.78 514.41,175.31 514.00,175.17 513.58,175.08 513.14,175.06 512.69,175.09"/>
    <junction id="n13" type="unregulated" x="564.94" y="220.59" incLanes="e25_0" intLanes=":n13_0_0" shape="566.96,218.11 564.94,220.59 568.11,221.03 568.09,219.91 567.95,219.41 567.71,218.94 567.38,218.51"/>
    <junction id="n14" type="unregulated" x="462.62" y="10.08" incLanes="e13_0" intLanes=":n14_0_0" shape="462.62,10.08 462.34,6.90 462.11,6.92 462.03,6.93 461.95,6.95 461.73,7.01"/>
    <junction id="n15" type="unregulated" x="563.43" y="1.11" incLanes="e14_0" intLanes=":n15_0_0" shape="566.43,1.08 566.40,-2.12 563.15,-2.08 563.43,1.11"/>
    <junction id="n16" type="unregulated" x="660.16" y="0.00" incLanes="e15_0" intLanes=":n16_0_0" shape="660.16,-0.00 660.46,-3.19 660.34,-3.20 660.25,-3.20 660.20,-3.20"/>
    <junction id="n17" type="unregulated" x="765.26" y="10.00" incLanes="e16_0" intLanes=":n17_0_0" shape="765.26,10.00 766.01,6.89 765.85,6.86 765.79,6.84 765.73,6.84 765.66,6.83"/>
    <junction id="n18" type="unregulated" x="867.29" y="34.74" incLanes="e17_0" intLanes=":n18_0_0" shape="870.14,35.70 871.15,32.66 868.05,31.63 867.29,34.74"/>
    <junction id="n19" type="unregulated" x="959.13" y="65.46" incLanes="e18_0" intLanes=":n19_0_0" shape="959.13,65.46 961.07,62.92 960.75,62.69 960.63,62.62 960.51,62.56 960.35,62.50 960.14,62.43"/>
    <junction id="n2" type="dead_end" x="48.91" y="341.85" incLanes="" intLanes="" shape="48.84,341.85 48.55,338.67 47.63,338.60 47.23,338.45 46.88,338.22 46.56,337.91 46.28,337.52 43.54,339.19 44.94,340.81 45.78,341.35 46.71,341.70 47.73,341.87"/>
    <junction id="n20" type="unregulated" x="1036.80" y="124.71" incLanes="e19_0" intLanes=":n20_0_0" shape="1038.89,126.86 1041.18,124.63 1040.32,123.67 1040.03,123.33 1039.72,123.00 1039.32,122.63 1038.74,122.16 1036.80,124.71 1037.64,125.43 1037.90,125.72 1038.15,126.03 1038.45,126.39"/>
    <junction id="n21" type="unregulated" x="1102.80" y="192.75" incLanes="e20_0" intLanes=":n21_0_0" shape="1102.79,192.75 1105.40,190.89 1105.30,190.74 1105.26,190.69 1105.22,190.65 1105.09,190.52"/>
    <junction id="n22" type="unregulated" x="1152.45" y="262.51" incLanes="e21_0 e30_0 e35_0" intLanes=":n22_0_0 :n22_1_0 :n22_2_0" shape="1154.93,265.72 1157.46,263.76 1150.61,254.40 1148.00,256.25 1148.61,258.14 1148.21,258.86 1147.34,259.44 1146.00,259.87 1144.20,260.16 1144.53,263.34 1146.52,263.49 1147.02,263.89 1147.18,264.51 1147.01,265.34 1146.51,266.38 1149.28,267.99 1151.32,265.30 1152.28,264.68 1153.20,264.54 1154.09,264.89"/>
    <junction id="n23" type="unregulated" x="973.44" y="324.69" incLanes="e32_0" intLanes=":n23_0_0" shape="973.44,324.69 971.76,321.96 970.59,322.84 970.26,323.24 969.95,323.68 969.59,324.21 969.05,324.88 971.48,326.96 972.14,326.04 972.35,325.69 972.58,325.37 972.91,325.05"/>
    <junction id="n24" type="unregulated" x="1058.84" y="272.37" incLanes="e31_0" intLanes=":n24_0_0" shape="1058.84,272.37 1058.51,269.18 1057.98,269.25 1057.80,269.30 1057.63,269.37 1057.43,269.48 1057.17,269.64"/>
    <junction id="n25" type="unregulated" x="911.90" y="396.48" incLanes="e29_0" intLanes=":n25_0_0 :n25_1_0 :n25_2_0" shape="917.07,399.99 918.87,397.34 918.03,396.56 917.98,396.27 918.17,396.04 918.60,395.87 919.27,395.76 918.96,392.57 916.88,392.59 916.31,392.41 916.05,392.11 916.10,391.69 916.47,391.15 914.04,389.06 911.93,391.16 910.96,391.84 910.05,392.27 909.18,392.47 908.37,392.41 907.68,395.54 909.84,396.06 911.41,396.54 912.67,397.09 913.85,397.79 915.24,398.72"/>
    <junction id="n26" type="unregulated" x="1084.68" y="379.69" incLanes="e34_0" intLanes=":n26_0_0 :n26_1_0" shape="1086.21,381.06 1088.35,378.68 1087.34,377.47 1087.09,376.87 1087.00,376.27 1087.09,375.67 1087.35,375.08 1084.58,373.48 1083.33,375.27 1082.69,375.92 1082.03,376.40 1081.37,376.71 1080.69,376.86 1081.00,380.05 1083.22,380.00 1084.15,380.12 1084.95,380.34 1085.64,380.65"/>
    <junction id="n27" type="unregulated" x="1096.28" y="521.54" incLanes="e38_0 e37_0" intLanes=":n27_0_0 :n27_1_0" shape="1103.33,527.21 1105.34,524.72 1104.00,523.13 1103.90,522.40 1104.16,521.71 1104.80,521.07 1105.82,520.46 1104.42,517.58 1101.20,518.52 1099.60,518.52 1097.99,518.21 1096.37,517.58 1094.76,516.64 1092.97,519.29"/>
    <junction id="n28" type="unregulated" x="1191.35" y="475.38" incLanes="e39_0 e36_0" intLanes=":n28_0_0 :n28_1_0 :n28_2_0 :n28_3_0" shape="1196.78,480.44 1198.96,478.10 1197.54,476.17 1197.32,475.20 1197.42,474.23 1197.84,473.26 1198.58,472.28 1196.23,470.11 1194.40,471.43 1193.45,471.63 1192.49,471.51 1191.52,471.08 1190.52,470.34 1188.39,472.72 1189.64,474.39 1189.72,475.15 1189.43,475.86 1188.78,476.51 1187.77,477.12 1189.17,480.00 1192.10,479.03 1193.42,478.97 1194.64,479.18 1195.76,479.67"/>
    <junction id="n29" type="unregulated" x="1259.83" y="401.40" incLanes="e33_0" intLanes=":n29_0_0 :n29_1_0" shape="1264.23,406.32 1266.61,404.19 1260.22,396.67 1257.69,398.63 1258.60,400.47 1258.67,401.38 1258.48,402.30 1258.03,403.20 1257.32,404.11 1259.67,406.28 1261.20,405.18 1261.96,405.05 1262.72,405.20 1263.47,405.62"/>
    <junction id="n3" type="unregulated" x="83.13" y="164.71" incLanes="e5_0" intLanes=":n3_0_0 :n3_1_0" shape="84.18,168.57 87.27,167.73 87.06,165.28 87.36,164.28 87.94,163.44 88.78,162.75 89.90,162.21 88.79,159.21 86.49,160.05 84.79,160.67 83.39,161.20 82.01,161.76 80.36,162.50 78.14,163.54 79.52,166.43 81.64,165.90 82.49,166.11 83.20,166.62 83.76,167.44"/>
    <junction id="n30" type="unregulated" x="1225.35" y="625.35" incLanes="e49_0" intLanes=":n30_0_0 :n30_1_0" shape="1228.67,627.77 1230.56,625.19 1229.53,624.07 1229.42,623.51 1229.56,622.97 1229.98,622.43 1230.65,621.90 1228.91,619.22 1226.79,620.23 1225.83,620.40 1224.92,620.35 1224.08,620.08 1223.30,619.59 1221.29,622.08"/>