<edges>
  <!--Automatically generated by AGR-->
  <edge id="e0" priority="1" from="n2" to="n5" numLanes="1">
    <!--Automatically generated by AGR-->
  </edge>
  <edge id="e1" priority="1" from="n5" to="n8" numLanes="1">
    <!--Automatically generated by AGR-->
  </edge>
  <edge id="e2" priority="1" from="n7" to="n6" numLanes="1">
    <!--Automatically generated by AGR-->
  </edge>
  <edge id="e3" priority="1" from="n1" to="n0" numLanes="1">
    <!--Automatically generated by AGR-->
  </edge>
  <edge id="e4" priority="1" from="n1" to="n4" numLanes="1">
    <!--Automatically generated by AGR-->
  </edge>
  <edge id="e5" priority="1" from="n0" to="n3" numLanes="1">
    <!--Automatically generated by AGR-->
  </edge>
  <edge id="e6" priority="1" from="n4" to="n7" numLanes="1">
    <!--Automatically generated by AGR-->
  </edge>
  <edge id="e7" priority="1" from="n4" to="n5" numLanes="1">
    <!--Automatically generated by AGR-->
  </edge>
  <edge id="e8" priority="1" from="n3" to="n4" numLanes="1">
    <!--Automatically generated by AGR-->
  </edge>
  <edge id="e9" priority="1" from="n3" to="n6" numLanes="1">
    <!--Automatically generated by AGR-->
  </edge>
  <edge id="e10" priority="1" from="n2" to="n1" numLanes="1">
    <!--Automatically generated by AGR-->
  </edge>
  <edge id="e11" priority="1" from="n8" to="n7" numLanes="1">
    <!--Automatically generated by AGR-->
  </edge>
  <edge id="e12" priority="1" from="n6" to="n9" numLanes="1">
    <!--Automatically generated by AGR-->
  </edge>
  <edge id="e13" priority="1" from="n9" to="n14" numLanes="1">
    <!--Automatically generated by AGR-->
  </edge>
  <edge id="e14" priority="1" from="n14" to="n15" numLanes="1">
    <!--Automatically generated by AGR-->
  </edge>
  <edge id="e15" priority="1" from="n15" to="n16" numLanes="1">
    <!--Automatically generated by AGR-->
  </edge>
  <edge id="e16" priority="1" from="n16" to="n17" numLanes="1">
    <!--Automatically generated by AGR-->
  </edge>
  <edge id="e17" priority="1" from="n17" to="n18" numLanes="1">
    <!--Automatically generated by AGR-->
  </edge>
  <edge id="e18" priority="1" from="n18" to="n19" numLanes="1">
    <!--Automatically generated by AGR-->
  </edge>
  <edge id="e19" priority="1" from="n19" to="n20" numLanes="1">
    <!--Automatically generated by AGR-->
  </edge>
  <edge id="e20" priority="1" from="n20" to="n21" numLanes="1">
    <!--Automatically generated by AGR-->
  </edge>
  <edge id="e21" priority="1" from="n21" to="n22" numLanes="1">
    <!--Automatically generated by AGR-->
  </edge>
  <edge id="e22" priority="1" from="n7" to="n10" numLanes="1">
    <!--Automatically generated by AGR-->
  </edge>
  <edge id="e23" priority="1" from="n10" to="n12" numLanes="1">
    <!--Automatically generated by AGR-->
  </edge>
  <edge id="e24" priority="1" from="n8" to="n11" numLanes="1">
    <!--Automatically generated by AGR-->
  </edge>
  <edge id="e25" priority="1" from="n12" to="n13" numLanes="1">
    <!--Automatically generated by AGR-->
  </edge>
  <edge id="e26" priority="1" from="n13" to="n11" numLanes="1">
    <!--Automatically generated by AGR-->
  </edge>
  <edge id="e27" priority="1" from="n9" to="n10" numLanes="1">
    <!--Automatically generated by AGR-->
  </edge>
  <edge id="e28" priority="1" from="n10" to="n11" numLanes="1">
    <!--Automatically generated by AGR-->
  </edge>
  <edge id="e29" priority="1" from="n11" to="n25" numLanes="1">
    <!--Automatically generated by AGR-->
  </edge>
  <edge id="e30" priority="1" from="n24" to="n22" numLanes="1">
    <!--Automatically generated by AGR-->
  </edge>
  <edge id="e31" priority="1" from="n23" to="n24" numLanes="1">
    <!--Automatically generated by AGR-->
  </edge>
  <edge id="e32" priority="1" from="n25" to="n23" numLanes="1">
    <!--Automatically generated by AGR-->
  </edge>
  <edge id="e33" priority="1" from="n22" to="n29" numLanes="1">
    <!--Automatically generated by AGR-->
  </edge>
  <edge id="e34" priority="1" from="n25" to="n26" numLanes="1">
    <!--Automatically generated by AGR-->
  </edge>
  <edge id="e35" priority="1" from="n26" to="n22" numLanes="1">
    <!--Automatically generated by AGR-->
  </edge>
  <edge id="e36" priority="1" from="n26" to="n28" numLanes="1">
    <!--Automatically generated by AGR-->
  </edge>
  <edge id="e37" priority="1" from="n25" to="n27" numLanes="1">
    <!--Automatically generated by AGR-->
  </edge>
  <edge id="e38" priority="1" from="n28" to="n27" numLanes="1">
    <!--Automatically generated by AGR-->
  </edge>
  <edge id="e39" priority="1" from="n29" to="n28" numLanes="1">
    <!--Automatically generated by AGR-->
  </edge>
  <edge id="e40" priority="1" from="n28" to="n31" numLanes="1">
    <!--Automatically generated by AGR-->
  </edge>
  <edge id="e41" priority="1" from="n31" to="n34" numLanes="1">
    <!--Automatically generated by AGR-->
  </edge>
  <edge id="e42" priority="1" from="n30" to="n31" numLanes="1">
    <!--Automatically generated by AGR-->
  </edge>
  <edge id="e43" priority="1" from="n30" to="n33" numLanes="1">
    <!--Automatically generated by AGR-->
  </edge>
  <edge id="e44" priority="1" from="n34" to="n33" numLanes="1">
    <!--Automatically generated by AGR-->
  </edge>
  <edge id="e45" priority="1" from="n32" to="n35" numLanes="1">
    <!--Automatically generated by AGR-->
  </edge>
  <edge id="e46" priority="1" from="n31" to="n32" numLanes="1">
    <!--Automatically generated by AGR-->
  </edge>
  <edge id="e47" priority="1" from="n35" to="n34" numLanes="1">
    <!--Automatically generated by AGR-->
  </edge>
  <edge id="e48" priority="1" from="n29" to="n32" numLanes="1">
    <!--Automatically generated by AGR-->
  </edge>
  <edge id="e49" priority="1" from="n27" to="n30" numLanes="1">
    <!--Automatically generated by AGR-->
  </edge>
</edges>
