<nodes>
  <!--Automatically generated by AGR-->
  <node id="n0" x="-745.792" y="-34.2024" type="unregulated">
    <!--Generated by AGR-->
  </node>
  <node id="n1" x="-736.289" y="38.6775" type="unregulated">
    <!--Generated by AGR-->
  </node>
  <node id="n2" x="-696.88" y="103.317" type="unregulated">
    <!--Generated by AGR-->
  </node>
  <node id="n3" x="-662.661" y="-73.8181" type="unregulated">
    <!--Generated by AGR-->
  </node>
  <node id="n4" x="-639.236" y="12.5333" type="unregulated">
    <!--Generated by AGR-->
  </node>
  <node id="n5" x="-597.586" y="94.205" type="unregulated">
    <!--Generated by AGR-->
  </node>
  <node id="n6" x="-528.303" y="-123.457" type="unregulated">
    <!--Generated by AGR-->
  </node>
  <node id="n7" x="-491.849" y="-20.333" type="unregulated">
    <!--Generated by AGR-->
  </node>
  <node id="n8" x="-430.547" y="75.518" type="unregulated">
    <!--Generated by AGR-->
  </node>
  <node id="n9" x="-388.389" y="-198.126" type="unregulated">
    <!--Generated by AGR-->
  </node>
  <node id="n10" x="-339.475" y="-44.9999" type="unregulated">
    <!--Generated by AGR-->
  </node>
  <node id="n11" x="-194.294" y="77.7648" type="unregulated">
    <!--Generated by AGR-->
  </node>
  <node id="n12" x="-232.652" y="-60.2678" type="unregulated">
    <!--Generated by AGR-->
  </node>
  <node id="n13" x="-180.855" y="-17.9428" type="unregulated">
    <!--Generated by AGR-->
  </node>
  <node id="n14" x="-283.171" y="-228.446" type="unregulated">
    <!--Generated by AGR-->
  </node>
  <node id="n15" x="-182.359" y="-237.418" type="unregulated">
    <!--Generated by AGR-->
  </node>
  <node id="n16" x="-85.6306" y="-238.529" type="unregulated">
    <!--Generated by AGR-->
  </node>
  <node id="n17" x="19.468" y="-228.525" type="unregulated">
    <!--Generated by AGR-->
  </node>
  <node id="n18" x="121.501" y="-203.785" type="unregulated">
    <!--Generated by AGR-->
  </node>
  <node id="n19" x="213.334" y="-173.066" type="unregulated">
    <!--Generated by AGR-->
  </node>
  <node id="n20" x="291.006" y="-113.82" type="unregulated">
    <!--Generated by AGR-->
  </node>
  <node id="n21" x="357.003" y="-45.7836" type="unregulated">
    <!--Generated by AGR-->
  </node>
  <node id="n22" x="406.656" y="23.9771" type="unregulated">
    <!--Generated by AGR-->
  </node>
  <node id="n23" x="227.643" y="86.1569" type="unregulated">
    <!--Generated by AGR-->
  </node>
  <node id="n24" x="313.05" y="33.8361" type="unregulated">
    <!--Generated by AGR-->
  </node>
  <node id="n25" x="166.106" y="157.947" type="unregulated">
    <!--Generated by AGR-->
  </node>
  <node id="n26" x="338.892" y="141.161" type="unregulated">
    <!--Generated by AGR-->
  </node>
  <node id="n27" x="350.485" y="283.009" type="unregulated">
    <!--Generated by AGR-->
  </node>
  <node id="n28" x="445.562" y="236.851" type="unregulated">
    <!--Generated by AGR-->
  </node>
  <node id="n29" x="514.041" y="162.87" type="unregulated">
    <!--Generated by AGR-->
  </node>
  <node id="n30" x="479.561" y="386.817" type="unregulated">
    <!--Generated by AGR-->
  </node>
  <node id="n31" x="554.305" y="338.266" type="unregulated">
    <!--Generated by AGR-->
  </node>
  <node id="n32" x="612.765" y="273.54" type="unregulated">
    <!--Generated by AGR-->
  </node>
  <node id="n33" x="559.53" y="445.307" type="unregulated">
    <!--Generated by AGR-->
  </node>
  <node id="n34" x="625.049" y="408.926" type="unregulated">
    <!--Generated by AGR-->
  </node>
  <node id="n35" x="667.447" y="349.343" type="unregulated">
    <!--Generated by AGR-->
  </node>
</nodes>
