<routes>
  <vehicle id="v0" depart="0.00">
    <route edges="e4 e7 e1 e24 e29 e37 e49 e43"/>
  </vehicle>
  <vehicle id="v1" depart="1.00">
    <route edges="e0 e1 e24 e29 e37 e49 e43"/>
  </vehicle>
  <vehicle id="v2" depart="2.00">
    <route edges="e5 e8 e7 e1 e24 e29 e37 e49 e43"/>
  </vehicle>
  <vehicle id="v3" depart="3.00">
    <route edges="e4 e7 e1 e24 e29 e37 e49 e43"/>
  </vehicle>
  <vehicle id="v4" depart="4.00">
    <route edges="e5 e8 e7 e1 e24 e29 e37 e49 e43"/>
  </vehicle>
  <vehicle id="v5" depart="5.00">
    <route edges="e4 e7 e1 e24 e29 e37 e49 e43"/>
  </vehicle>
  <vehicle id="v6" depart="6.00">
    <route edges="e0 e1 e24 e29 e37 e49 e43"/>
  </vehicle>
  <vehicle id="v7" depart="7.00">
    <route edges="e5 e8 e7 e1 e24 e29 e37 e49 e43"/>
  </vehicle>
  <vehicle id="v8" depart="8.00">
    <route edges="e5 e8 e7 e1 e24 e29 e37 e49 e43"/>
  </vehicle>
  <vehicle id="v9" depart="9.00">
    <route edges="e5 e8 e7 e1 e24 e29 e37 e49 e43"/>
  </vehicle>
  <vehicle id="v10" depart="10.00">
    <route edges="e4 e7 e1 e24 e29 e37 e49 e43"/>
  </vehicle>
  <vehicle id="v11" depart="11.00">
    <route edges="e4 e7 e1 e24 e29 e37 e49 e43"/>
  </vehicle>
  <vehicle id="v12" depart="12.00">
    <route edges="e5 e8 e7 e1 e24 e29 e37 e49 e43"/>
  </vehicle>
  <vehicle id="v13" depart="13.00">
    <route edges="e4 e7 e1 e24 e29 e37 e49 e43"/>
  </vehicle>
  <vehicle id="v14" depart="14.00">
    <route edges="e0 e1 e24 e29 e37 e49 e43"/>
  </vehicle>
  <vehicle id="v15" depart="15.00">
    <route edges="e5 e8 e7 e1 e24 e29 e37 e49 e43"/>
  </vehicle>
  <vehicle id="v16" depart="16.00">
    <route edges="e4 e7 e1 e24 e29 e37 e49 e43"/>
  </vehicle>
  <vehicle id="v17" depart="17.00">
    <route edges="e5 e8 e7 e1 e24 e29 e37 e49 e43"/>
  </vehicle>
  <vehicle id="v18" depart="18.00">
    <route edges="e5 e8 e7 e1 e24 e29 e37 e49 e43"/>
  </vehicle>
  <vehicle id="v19" depart="19.00">
    <route edges="e5 e8 e7 e1 e24 e29 e37 e49 e43"/>
  </vehicle>
  <vehicle id="v20" depart="20.00">
    <route edges="e4 e7 e1 e24 e29 e37 e49 e43"/>
  </vehicle>
  <vehicle id="v21" depart="21.00">
    <route edges="e5 e8 e7 e1 e24 e29 e37 e49 e43"/>
  </vehicle>
  <vehicle id="v22" depart="22.00">
    <route edges="e5 e8 e7 e1 e24 e29 e37 e49 e43"/>
  </vehicle>
  <vehicle id="v23" depart="23.00">
    <route edges="e4 e7 e1 e24 e29 e37 e49 e43"/>
  </vehicle>
  <vehicle id="v24" depart="24.00">
    <route edges="e5 e8 e7 e1 e24 e29 e37 e49 e43"/>
  </vehicle>
  <vehicle id="v25" depart="25.00">
    <route edges="e0 e1 e24 e29 e37 e49 e43"/>
  </vehicle>
  <vehicle id="v26" depart="26.00">
    <route edges="e5 e8 e7 e1 e24 e29 e37 e49 e43"/>
  </vehicle>
  <vehicle id="v27" depart="27.00">
    <route edges="e5 e8 e7 e1 e24 e29 e37 e49 e43"/>
  </vehicle>
  <vehicle id="v28" depart="28.00">
    <route edges="e4 e7 e1 e24 e29 e37 e49 e43"/>
  </vehicle>
  <vehicle id="v29" depart="29.00">
    <route edges="e0 e1 e24 e29 e37 e49 e43"/>
  </vehicle>
  <vehicle id="v30" depart="30.00">
    <route edges="e0 e1 e24 e29 e37 e49 e43"/>
  </vehicle>
  <vehicle id="v31" depart="31.00">
    <route edges="e0 e1 e24 e29 e37 e49 e43"/>
  </vehicle>
  <vehicle id="v32" depart="32.00">
    <route edges="e4 e7 e1 e24 e29 e37 e49 e43"/>
  </vehicle>
  <vehicle id="v33" depart="33.00">
    <route edges="e0 e1 e24 e29 e37 e49 e43"/>
  </vehicle>
  <vehicle id="v34" depart="34.00">
    <route edges="e0 e1 e24 e29 e37 e49 e43"/>
  </vehicle>
  <vehicle id="v35" depart="35.00">
    <route edges="e4 e7 e1 e24 e29 e37 e49 e43"/>
  </vehicle>
  <vehicle id="v36" depart="36.00">
    <route edges="e0 e1 e24 e29 e37 e49 e43"/>
  </vehicle>
  <vehicle id="v37" depart="37.00">
    <route edges="e0 e1 e24 e29 e37 e49 e43"/>
  </vehicle>
  <vehicle id="v38" depart="38.00">
    <route edges="e5 e8 e7 e1 e24 e29 e37 e49 e43"/>
  </vehicle>
  <vehicle id="v39" depart="39.00">
    <route edges="e4 e7 e1 e24 e29 e37 e49 e43"/>
  </vehicle>
  <vehicle id="v40" depart="40.00">
    <route edges="e0 e1 e24 e29 e37 e49 e43"/>
  </vehicle>
  <vehicle id="v41" depart="41.00">
    <route edges="e5 e8 e7 e1 e24 e29 e37 e49 e43"/>
  </vehicle>
  <vehicle id="v42" depart="42.00">
    <route edges="e0 e1 e24 e29 e37 e49 e43"/>
  </vehicle>
  <vehicle id="v43" depart="43.00">
    <route edges="e0 e1 e24 e29 e37 e49 e43"/>
  </vehicle>
  <vehicle id="v44" depart="44.00">
    <route edges="e5 e8 e7 e1 e24 e29 e37 e49 e43"/>
  </vehicle>
  <vehicle id="v45" depart="45.00">
    <route edges="e4 e7 e1 e24 e29 e37 e49 e43"/>
  </vehicle>
  <vehicle id="v46" depart="46.00">
    <route edges="e5 e8 e7 e1 e24 e29 e37 e49 e43"/>
  </vehicle>
  <vehicle id="v47" depart="47.00">
    <route edges="e0 e1 e24 e29 e37 e49 e43"/>
  </vehicle>
  <vehicle id="v48" depart="48.00">
    <route edges="e0 e1 e24 e29 e37 e49 e43"/>
  </vehicle>
  <vehicle id="v49" depart="49.00">
    <route edges="e4 e7 e1 e24 e29 e37 e49 e43"/>
  </vehicle>
  <vehicle id="v50" depart="50.00">
    <route edges="e4 e7 e1 e24 e29 e37 e49 e43"/>
  </vehicle>
  <vehicle id="v51" depart="51.00">
    <route edges="e0 e1 e24 e29 e37 e49 e43"/>
  </vehicle>
  <vehicle id="v52" depart="52.00">
    <route edges="e5 e8 e7 e1 e24 e29 e37 e49 e43"/>
  </vehicle>
  <vehicle id="v53" depart="53.00">
    <route edges="e4 e7 e1 e24 e29 e37 e49 e43"/>
  </vehicle>
  <vehicle id="v54" depart="54.00">
    <route edges="e4 e7 e1 e24 e29 e37 e49 e43"/>
  </vehicle>
  <vehicle id="v55" depart="55.00">
    <route edges="e4 e7 e1 e24 e29 e37 e49 e43"/>
  </vehicle>
  <vehicle id="v56" depart="56.00">
    <route edges="e0 e1 e24 e29 e37 e49 e43"/>
  </vehicle>
  <vehicle id="v57" depart="57.00">
    <route edges="e4 e7 e1 e24 e29 e37 e49 e43"/>
  </vehicle>
  <vehicle id="v58" depart="58.00">
    <route edges="e5 e8 e7 e1 e24 e29 e37 e49 e43"/>
  </vehicle>
  <vehicle id="v59" depart="59.00">
    <route edges="e4 e7 e1 e24 e29 e37 e49 e43"/>
  </vehicle>
  <vehicle id="v60" depart="60.00">
    <route edges="e5 e8 e7 e1 e24 e29 e37 e49 e43"/>
  </vehicle>
  <vehicle id="v61" depart="61.00">
    <route edges="e0 e1 e24 e29 e37 e49 e43"/>
  </vehicle>
  <vehicle id="v62" depart="62.00">
    <route edges="e4 e7 e1 e24 e29 e37 e49 e43"/>
  </vehicle>
  <vehicle id="v63" depart="63.00">
    <route edges="e5 e8 e7 e1 e24 e29 e37 e49 e43"/>
  </vehicle>
  <vehicle id="v64" depart="64.00">
    <route edges="e5 e8 e7 e1 e24 e29 e37 e49 e43"/>
  </vehicle>
  <vehicle id="v65" depart="65.00">
    <route edges="e4 e7 e1 e24 e29 e37 e49 e43"/>
  </vehicle>
  <vehicle id="v66" depart="66.00">
    <route edges="e5 e8 e7 e1 e24 e29 e37 e49 e43"/>
  </vehicle>
  <vehicle id="v67" depart="67.00">
    <route edges="e4 e7 e1 e24 e29 e37 e49 e43"/>
  </vehicle>
  <vehicle id="v68" depart="68.00">
    <route edges="e4 e7 e1 e24 e29 e37 e49 e43"/>
  </vehicle>
  <vehicle id="v69" depart="69.00">
    <route edges="e5 e8 e7 e1 e24 e29 e37 e49 e43"/>
  </vehicle>
  <vehicle id="v70" depart="70.00">
    <route edges="e5 e8 e7 e1 e24 e29 e37 e49 e43"/>
  </vehicle>
  <vehicle id="v71" depart="71.00">
    <route edges="e5 e8 e7 e1 e24 e29 e37 e49 e43"/>
  </vehicle>
  <vehicle id="v72" depart="72.00">
    <route edges="e5 e8 e7 e1 e24 e29 e37 e49 e43"/>
  </vehicle>
  <vehicle id="v73" depart="73.00">
    <route edges="e0 e1 e24 e29 e37 e49 e43"/>
  </vehicle>
  <vehicle id="v74" depart="74.00">
    <route edges="e4 e7 e1 e24 e29 e37 e49 e43"/>
  </vehicle>
  <vehicle id="v75" depart="75.00">
    <route edges="e5 e8 e7 e1 e24 e29 e37 e49 e43"/>
  </vehicle>
  <vehicle id="v76" depart="76.00">
    <route edges="e0 e1 e24 e29 e37 e49 e43"/>
  </vehicle>
  <vehicle id="v77" depart="77.00">
    <route edges="e4 e7 e1 e24 e29 e37 e49 e43"/>
  </vehicle>
  <vehicle id="v78" depart="78.00">
    <route edges="e4 e7 e1 e24 e29 e37 e49 e43"/>
  </vehicle>
  <vehicle id="v79" depart="79.00">
    <route edges="e4 e7 e1 e24 e29 e37 e49 e43"/>
  </vehicle>
  <vehicle id="v80" depart="80.00">
    <route edges="e4 e7 e1 e24 e29 e37 e49 e43"/>
  </vehicle>
  <vehicle id="v81" depart="81.00">
    <route edges="e4 e7 e1 e24 e29 e37 e49 e43"/>
  </vehicle>
  <vehicle id="v82" depart="82.00">
    <route edges="e0 e1 e24 e29 e37 e49 e43"/>
  </vehicle>
  <vehicle id="v83" depart="83.00">
    <route edges="e5 e8 e7 e1 e24 e29 e37 e49 e43"/>
  </vehicle>
  <vehicle id="v84" depart="84.00">
    <route edges="e0 e1 e24 e29 e37 e49 e43"/>
  </vehicle>
  <vehicle id="v85" depart="85.00">
    <route edges="e0 e1 e24 e29 e37 e49 e43"/>
  </vehicle>
  <vehicle id="v86" depart="86.00">
    <route edges="e4 e7 e1 e24 e29 e37 e49 e43"/>
  </vehicle>
  <vehicle id="v87" depart="87.00">
    <route edges="e4 e7 e1 e24 e29 e37 e49 e43"/>
  </vehicle>
  <vehicle id="v88" depart="88.00">
    <route edges="e4 e7 e1 e24 e29 e37 e49 e43"/>
  </vehicle>
  <vehicle id="v89" depart="89.00">
    <route edges="e4 e7 e1 e24 e29 e37 e49 e43"/>
  </vehicle>
  <vehicle id="v90" depart="90.00">
    <route edges="e5 e8 e7 e1 e24 e29 e37 e49 e43"/>
  </vehicle>
  <vehicle id="v91" depart="91.00">
    <route edges="e5 e8 e7 e1 e24 e29 e37 e49 e43"/>
  </vehicle>
  <vehicle id="v92" depart="92.00">
    <route edges="e4 e7 e1 e24 e29 e37 e49 e43"/>
  </vehicle>
  <vehicle id="v93" depart="93.00">
    <route edges="e0 e1 e24 e29 e37 e49 e43"/>
  </vehicle>
  <vehicle id="v94" depart="94.00">
    <route edges="e0 e1 e24 e29 e37 e49 e43"/>
  </vehicle>
  <vehicle id="v95" depart="95.00">
    <route edges="e4 e7 e1 e24 e29 e37 e49 e43"/>
  </vehicle>
  <vehicle id="v96" depart="96.00">
    <route edges="e4 e7 e1 e24 e29 e37 e49 e43"/>
  </vehicle>
  <vehicle id="v97" depart="97.00">
    <route edges="e4 e7 e1 e24 e29 e37 e49 e43"/>
  </vehicle>
  <vehicle id="v98" depart="98.00">
    <route edges="e5 e8 e7 e1 e24 e29 e37 e49 e43"/>
  </vehicle>
  <vehicle id="v99" depart="99.00">
    <route edges="e5 e8 e7 e1 e24 e29 e37 e49 e43"/>
  </vehicle>
  <vehicle id="v100" depart="100.00">
    <route edges="e4 e7 e1 e24 e29 e37 e49 e43"/>
  </vehicle>
  <vehicle id="v101" depart="101.00">
    <route edges="e0 e1 e24 e29 e37 e49 e43"/>
  </vehicle>
  <vehicle id="v102" depart="102.00">
    <route edges="e4 e7 e1 e24 e29 e37 e49 e43"/>
  </vehicle>
  <vehicle id="v103" depart="103.00">
    <route edges="e5 e8 e7 e1 e24 e29 e37 e49 e43"/>
  </vehicle>
  <vehicle id="v104" depart="104.00">
    <route edges="e4 e7 e1 e24 e29 e37 e49 e43"/>
  </vehicle>
  <vehicle id="v105" depart="105.00">
    <route edges="e5 e8 e7 e1 e24 e29 e37 e49 e43"/>
  </vehicle>
  <vehicle id="v106" depart="106.00">
    <route edges="e0 e1 e24 e29 e37 e49 e43"/>
  </vehicle>
  <vehicle id="v107" depart="107.00">
    <route edges="e5 e8 e7 e1 e24 e29 e37 e49 e43"/>
  </vehicle>
  <vehicle id="v108" depart="108.00">
    <route edges="e4 e7 e1 e24 e29 e37 e49 e43"/>
  </vehicle>
  <vehicle id="v109" depart="109.00">
    <route edges="e4 e7 e1 e24 e29 e37 e49 e43"/>
  </vehicle>
  <vehicle id="v110" depart="110.00">
    <route edges="e0 e1 e24 e29 e37 e49 e43"/>
  </vehicle>
  <vehicle id="v111" depart="111.00">
    <route edges="e0 e1 e24 e29 e37 e49 e43"/>
  </vehicle>
  <vehicle id="v112" depart="112.00">
    <route edges="e5 e8 e7 e1 e24 e29 e37 e49 e43"/>
  </vehicle>
  <vehicle id="v113" depart="113.00">
    <route edges="e0 e1 e24 e29 e37 e49 e43"/>
  </vehicle>
  <vehicle id="v114" depart="114.00">
    <route edges="e4 e7 e1 e24 e29 e37 e49 e43"/>
  </vehicle>
  <vehicle id="v115" depart="115.00">
    <route edges="e0 e1 e24 e29 e37 e49 e43"/>
  </vehicle>
  <vehicle id="v116" depart="116.00">
    <route edges="e4 e7 e1 e24 e29 e37 e49 e43"/>
  </vehicle>
  <vehicle id="v117" depart="117.00">
    <route edges="e5 e8 e7 e1 e24 e29 e37 e49 e43"/>
  </vehicle>
  <vehicle id="v118" depart="118.00">
    <route edges="e0 e1 e24 e29 e37 e49 e43"/>
  </vehicle>
  <vehicle id="v119" depart="119.00">
    <route edges="e0 e1 e24 e29 e37 e49 e43"/>
  </vehicle>
  <vehicle id="v120" depart="120.00">
    <route edges="e0 e1 e24 e29 e37 e49 e43"/>
  </vehicle>
  <vehicle id="v121" depart="121.00">
    <route edges="e4 e7 e1 e24 e29 e37 e49 e43"/>
  </vehicle>
  <vehicle id="v122" depart="122.00">
    <route edges="e0 e1 e24 e29 e37 e49 e43"/>
  </vehicle>
  <vehicle id="v123" depart="123.00">
    <route edges="e5 e8 e7 e1 e24 e29 e37 e49 e43"/>
  </vehicle>
  <vehicle id="v124" depart="124.00">
    <route edges="e0 e1 e24 e29 e37 e49 e43"/>
  </vehicle>
  <vehicle id="v125" depart="125.00">
    <route edges="e5 e8 e7 e1 e24 e29 e37 e49 e43"/>
  </vehicle>
  <vehicle id="v126" depart="126.00">
    <route edges="e0 e1 e24 e29 e37 e49 e43"/>
  </vehicle>
  <vehicle id="v127" depart="127.00">
    <route edges="e5 e8 e7 e1 e24 e29 e37 e49 e43"/>
  </vehicle>
  <vehicle id="v128" depart="128.00">
    <route edges="e5 e8 e7 e1 e24 e29 e37 e49 e43"/>
  </vehicle>
  <vehicle id="v129" depart="129.00">
    <route edges="e4 e7 e1 e24 e29 e37 e49 e43"/>
  </vehicle>
  <vehicle id="v130" depart="130.00">
    <route edges="e5 e8 e7 e1 e24 e29 e37 e49 e43"/>
  </vehicle>
  <vehicle id="v131" depart="131.00">
    <route edges="e0 e1 e24 e29 e37 e49 e43"/>
  </vehicle>
  <vehicle id="v132" depart="132.00">
    <route edges="e5 e8 e7 e1 e24 e29 e37 e49 e43"/>
  </vehicle>
  <vehicle id="v133" depart="133.00">
    <route edges="e0 e1 e24 e29 e37 e49 e43"/>
  </vehicle>
  <vehicle id="v134" depart="134.00">
    <route edges="e5 e8 e7 e1 e24 e29 e37 e49 e43"/>
  </vehicle>
  <vehicle id="v135" depart="135.00">
    <route edges="e0 e1 e24 e29 e37 e49 e43"/>
  </vehicle>
  <vehicle id="v136" depart="136.00">
    <route edges="e4 e7 e1 e24 e29 e37 e49 e43"/>
  </vehicle>
  <vehicle id="v137" depart="137.00">
    <route edges="e0 e1 e24 e29 e37 e49 e43"/>
  </vehicle>
  <vehicle id="v138" depart="138.00">
    <route edges="e0 e1 e24 e29 e37 e49 e43"/>
  </vehicle>
  <vehicle id="v139" depart="139.00">
    <route edges="e4 e7 e1 e24 e29 e37 e49 e43"/>
  </vehicle>
  <vehicle id="v140" depart="140.00">
    <route edges="e5 e8 e7 e1 e24 e29 e37 e49 e43"/>
  </vehicle>
  <vehicle id="v141" depart="141.00">
    <route edges="e0 e1 e24 e29 e37 e49 e43"/>
  </vehicle>
  <vehicle id="v142" depart="142.00">
    <route edges="e4 e7 e1 e24 e29 e37 e49 e43"/>
  </vehicle>
  <vehicle id="v143" depart="143.00">
    <route edges="e0 e1 e24 e29 e37 e49 e43"/>
  </vehicle>
  <vehicle id="v144" depart="144.00">
    <route edges="e5 e8 e7 e1 e24 e29 e37 e49 e43"/>
  </vehicle>
  <vehicle id="v145" depart="145.00">
    <route edges="e0 e1 e24 e29 e37 e49 e43"/>
  </vehicle>
  <vehicle id="v146" depart="146.00">
    <route edges="e0 e1 e24 e29 e37 e49 e43"/>
  </vehicle>
  <vehicle id="v147" depart="147.00">
    <route edges="e4 e7 e1 e24 e29 e37 e49 e43"/>
  </vehicle>
  <vehicle id="v148" depart="148.00">
    <route edges="e5 e8 e7 e1 e24 e29 e37 e49 e43"/>
  </vehicle>
  <vehicle id="v149" depart="149.00">
    <route edges="e5 e8 e7 e1 e24 e29 e37 e49 e43"/>
  </vehicle>
  <vehicle id="v150" depart="150.00">
    <route edges="e0 e1 e24 e29 e37 e49 e43"/>
  </vehicle>
  <vehicle id="v151" depart="151.00">
    <route edges="e4 e7 e1 e24 e29 e37 e49 e43"/>
  </vehicle>
  <vehicle id="v152" depart="152.00">
    <route edges="e5 e8 e7 e1 e24 e29 e37 e49 e43"/>
  </vehicle>
  <vehicle id="v153" depart="153.00">
    <route edges="e0 e1 e24 e29 e37 e49 e43"/>
  </vehicle>
  <vehicle id="v154" depart="154.00">
    <route edges="e5 e8 e7 e1 e24 e29 e37 e49 e43"/>
  </vehicle>
  <vehicle id="v155" depart="155.00">
    <route edges="e4 e7 e1 e24 e29 e37 e49 e43"/>
  </vehicle>
  <vehicle id="v156" depart="156.00">
    <route edges="e0 e1 e24 e29 e37 e49 e43"/>
  </vehicle>
  <vehicle id="v157" depart="157.00">
    <route edges="e0 e1 e24 e29 e37 e49 e43"/>
  </vehicle>
  <vehicle id="v158" depart="158.00">
    <route edges="e5 e8 e7 e1 e24 e29 e37 e49 e43"/>
  </vehicle>
  <vehicle id="v159" depart="159.00">
    <route edges="e4 e7 e1 e24 e29 e37 e49 e43"/>
  </vehicle>
  <vehicle id="v160" depart="160.00">
    <route edges="e0 e1 e24 e29 e37 e49 e43"/>
  </vehicle>
  <vehicle id="v161" depart="161.00">
    <route edges="e4 e7 e1 e24 e29 e37 e49 e43"/>
  </vehicle>
  <vehicle id="v162" depart="162.00">
    <route edges="e4 e7 e1 e24 e29 e37 e49 e43"/>
  </vehicle>
  <vehicle id="v163" depart="163.00">
    <route edges="e0 e1 e24 e29 e37 e49 e43"/>
  </vehicle>
  <vehicle id="v164" depart="164.00">
    <route edges="e4 e7 e1 e24 e29 e37 e49 e43"/>
  </vehicle>
  <vehicle id="v165" depart="165.00">
    <route edges="e5 e8 e7 e1 e24 e29 e37 e49 e43"/>
  </vehicle>
  <vehicle id="v166" depart="166.00">
    <route edges="e0 e1 e24 e29 e37 e49 e43"/>
  </vehicle>
  <vehicle id="v167" depart="167.00">
    <route edges="e0 e1 e24 e29 e37 e49 e43"/>
  </vehicle>
  <vehicle id="v168" depart="168.00">
    <route edges="e0 e1 e24 e29 e37 e49 e43"/>
  </vehicle>
  <vehicle id="v169" depart="169.00">
    <route edges="e5 e8 e7 e1 e24 e29 e37 e49 e43"/>
  </vehicle>
  <vehicle id="v170" depart="170.00">
    <route edges="e4 e7 e1 e24 e29 e37 e49 e43"/>
  </vehicle>
  <vehicle id="v171" depart="171.00">
    <route edges="e0 e1 e24 e29 e37 e49 e43"/>
  </vehicle>
  <vehicle id="v172" depart="172.00">
    <route edges="e5 e8 e7 e1 e24 e29 e37 e49 e43"/>
  </vehicle>
  <vehicle id="v173" depart="173.00">
    <route edges="e4 e7 e1 e24 e29 e37 e49 e43"/>
  </vehicle>
  <vehicle id="v174" depart="174.00">
    <route edges="e0 e1 e24 e29 e37 e49 e43"/>
  </vehicle>
  <vehicle id="v175" depart="175.00">
    <route edges="e5 e8 e7 e1 e24 e29 e37 e49 e43"/>
  </vehicle>
  <vehicle id="v176" depart="176.00">
    <route edges="e0 e1 e24 e29 e37 e49 e43"/>
  </vehicle>
  <vehicle id="v177" depart="177.00">
    <route edges="e0 e1 e24 e29 e37 e49 e43"/>
  </vehicle>
  <vehicle id="v178" depart="178.00">
    <route edges="e4 e7 e1 e24 e29 e37 e49 e43"/>
  </vehicle>
  <vehicle id="v179" depart="179.00">
    <route edges="e0 e1 e24 e29 e37 e49 e43"/>
  </vehicle>
  <vehicle id="v180" depart="180.00">
    <route edges="e0 e1 e24 e29 e37 e49 e43"/>
  </vehicle>
  <vehicle id="v181" depart="181.00">
    <route edges="e5 e8 e7 e1 e24 e29 e37 e49 e43"/>
  </vehicle>
  <vehicle id="v182" depart="182.00">
    <route edges="e0 e1 e24 e29 e37 e49 e43"/>
  </vehicle>
  <vehicle id="v183" depart="183.00">
    <route edges="e4 e7 e1 e24 e29 e37 e49 e43"/>
  </vehicle>
  <vehicle id="v184" depart="184.00">
    <route edges="e4 e7 e1 e24 e29 e37 e49 e43"/>
  </vehicle>
  <vehicle id="v185" depart="185.00">
    <route edges="e4 e7 e1 e24 e29 e37 e49 e43"/>
  </vehicle>
  <vehicle id="v186" depart="186.00">
    <route edges="e4 e7 e1 e24 e29 e37 e49 e43"/>
  </vehicle>
  <vehicle id="v187" depart="187.00">
    <route edges="e5 e8 e7 e1 e24 e29 e37 e49 e43"/>
  </vehicle>
  <vehicle id="v188" depart="188.00">
    <route edges="e4 e7 e1 e24 e29 e37 e49 e43"/>
  </vehicle>
  <vehicle id="v189" depart="189.00">
    <route edges="e0 e1 e24 e29 e37 e49 e43"/>
  </vehicle>
  <vehicle id="v190" depart="190.00">
    <route edges="e0 e1 e24 e29 e37 e49 e43"/>
  </vehicle>
  <vehicle id="v191" depart="191.00">
    <route edges="e5 e8 e7 e1 e24 e29 e37 e49 e43"/>
  </vehicle>
  <vehicle id="v192" depart="192.00">
    <route edges="e0 e1 e24 e29 e37 e49 e43"/>
  </vehicle>
  <vehicle id="v193" depart="193.00">
    <route edges="e0 e1 e24 e29 e37 e49 e43"/>
  </vehicle>
  <vehicle id="v194" depart="194.00">
    <route edges="e0 e1 e24 e29 e37 e49 e43"/>
  </vehicle>
  <vehicle id="v195" depart="195.00">
    <route edges="e5 e8 e7 e1 e24 e29 e37 e49 e43"/>
  </vehicle>
  <vehicle id="v196" depart="196.00">
    <route edges="e5 e8 e7 e1 e24 e29 e37 e49 e43"/>
  </vehicle>
  <vehicle id="v197" depart="197.00">
    <route edges="e0 e1 e24 e29 e37 e49 e43"/>
  </vehicle>
  <vehicle id="v198" depart="198.00">
    <route edges="e0 e1 e24 e29 e37 e49 e43"/>
  </vehicle>
  <vehicle id="v199" depart="199.00">
    <route edges="e0 e1 e24 e29 e37 e49 e43"/>
  </vehicle>
  <vehicle id="v200" depart="200.00">
    <route edges="e4 e7 e1 e24 e29 e37 e49 e43"/>
  </vehicle>
  <vehicle id="v201" depart="201.00">
    <route edges="e0 e1 e24 e29 e37 e49 e43"/>
  </vehicle>
  <vehicle id="v202" depart="202.00">
    <route edges="e4 e7 e1 e24 e29 e37 e49 e43"/>
  </vehicle>
  <vehicle id="v203" depart="203.00">
    <route edges="e4 e7 e1 e24 e29 e37 e49 e43"/>
  </vehicle>
  <vehicle id="v204" depart="204.00">
    <route edges="e0 e1 e24 e29 e37 e49 e43"/>
  </vehicle>
  <vehicle id="v205" depart="205.00">
    <route edges="e4 e7 e1 e24 e29 e37 e49 e43"/>
  </vehicle>
  <vehicle id="v206" depart="206.00">
    <route edges="e5 e8 e7 e1 e24 e29 e37 e49 e43"/>
  </vehicle>
  <vehicle id="v207" depart="207.00">
    <route edges="e5 e8 e7 e1 e24 e29 e37 e49 e43"/>
  </vehicle>
  <vehicle id="v208" depart="208.00">
    <route edges="e5 e8 e7 e1 e24 e29 e37 e49 e43"/>
  </vehicle>
  <vehicle id="v209" depart="209.00">
    <route edges="e5 e8 e7 e1 e24 e29 e37 e49 e43"/>
  </vehicle>
  <vehicle id="v210" depart="210.00">
    <route edges="e4 e7 e1 e24 e29 e37 e49 e43"/>
  </vehicle>
  <vehicle id="v211" depart="211.00">
    <route edges="e4 e7 e1 e24 e29 e37 e49 e43"/>
  </vehicle>
  <vehicle id="v212" depart="212.00">
    <route edges="e0 e1 e24 e29 e37 e49 e43"/>
  </vehicle>
  <vehicle id="v213" depart="213.00">
    <route edges="e4 e7 e1 e24 e29 e37 e49 e43"/>
  </vehicle>
  <vehicle id="v214" depart="214.00">
    <route edges="e0 e1 e24 e29 e37 e49 e43"/>
  </vehicle>
  <vehicle id="v215" depart="215.00">
    <route edges="e5 e8 e7 e1 e24 e29 e37 e49 e43"/>
  </vehicle>
  <vehicle id="v216" depart="216.00">
    <route edges="e4 e7 e1 e24 e29 e37 e49 e43"/>
  </vehicle>
  <vehicle id="v217" depart="217.00">
    <route edges="e4 e7 e1 e24 e29 e37 e49 e43"/>
  </vehicle>
  <vehicle id="v218" depart="218.00">
    <route edges="e4 e7 e1 e24 e29 e37 e49 e43"/>
  </vehicle>
  <vehicle id="v219" depart="219.00">
    <route edges="e5 e8 e7 e1 e24 e29 e37 e49 e43"/>
  </vehicle>
  <vehicle id="v220" depart="220.00">
    <route edges="e0 e1 e24 e29 e37 e49 e43"/>
  </vehicle>
  <vehicle id="v221" depart="221.00">
    <route edges="e0 e1 e24 e29 e37 e49 e43"/>
  </vehicle>
  <vehicle id="v222" depart="222.00">
    <route edges="e5 e8 e7 e1 e24 e29 e37 e49 e43"/>
  </vehicle>
  <vehicle id="v223" depart="223.00">
    <route edges="e5 e8 e7 e1 e24 e29 e37 e49 e43"/>
  </vehicle>
  <vehicle id="v224" depart="224.00">
    <route edges="e4 e7 e1 e24 e29 e37 e49 e43"/>
  </vehicle>
  <vehicle id="v225" depart="225.00">
    <route edges="e4 e7 e1 e24 e29 e37 e49 e43"/>
  </vehicle>
  <vehicle id="v226" depart="226.00">
    <route edges="e0 e1 e24 e29 e37 e49 e43"/>
  </vehicle>
  <vehicle id="v227" depart="227.00">
    <route edges="e4 e7 e1 e24 e29 e37 e49 e43"/>
  </vehicle>
  <vehicle id="v228" depart="228.00">
    <route edges="e0 e1 e24 e29 e37 e49 e43"/>
  </vehicle>
  <vehicle id="v229" depart="229.00">
    <route edges="e0 e1 e24 e29 e37 e49 e43"/>
  </vehicle>
  <vehicle id="v230" depart="230.00">
    <route edges="e4 e7 e1 e24 e29 e37 e49 e43"/>
  </vehicle>
  <vehicle id="v231" depart="231.00">
    <route edges="e0 e1 e24 e29 e37 e49 e43"/>
  </vehicle>
  <vehicle id="v232" depart="232.00">
    <route edges="e5 e8 e7 e1 e24 e29 e37 e49 e43"/>
  </vehicle>
  <vehicle id="v233" depart="233.00">
    <route edges="e0 e1 e24 e29 e37 e49 e43"/>
  </vehicle>
  <vehicle id="v234" depart="234.00">
    <route edges="e5 e8 e7 e1 e24 e29 e37 e49 e43"/>
  </vehicle>
  <vehicle id="v235" depart="235.00">
    <route edges="e4 e7 e1 e24 e29 e37 e49 e43"/>
  </vehicle>
  <vehicle id="v236" depart="236.00">
    <route edges="e5 e8 e7 e1 e24 e29 e37 e49 e43"/>
  </vehicle>
  <vehicle id="v237" depart="237.00">
    <route edges="e0 e1 e24 e29 e37 e49 e43"/>
  </vehicle>
  <vehicle id="v238" depart="238.00">
    <route edges="e5 e8 e7 e1 e24 e29 e37 e49 e43"/>
  </vehicle>
  <vehicle id="v239" depart="239.00">
    <route edges="e5 e8 e7 e1 e24 e29 e37 e49 e43"/>
  </vehicle>
  <vehicle id="v240" depart="240.00">
    <route edges="e4 e7 e1 e24 e29 e37 e49 e43"/>
  </vehicle>
  <vehicle id="v241" depart="241.00">
    <route edges="e4 e7 e1 e24 e29 e37 e49 e43"/>
  </vehicle>
  <vehicle id="v242" depart="242.00">
    <route edges="e5 e8 e7 e1 e24 e29 e37 e49 e43"/>
  </vehicle>
  <vehicle id="v243" depart="243.00">
    <route edges="e4 e7 e1 e24 e29 e37 e49 e43"/>
  </vehicle>
  <vehicle id="v244" depart="244.00">
    <route edges="e0 e1 e24 e29 e37 e49 e43"/>
  </vehicle>
  <vehicle id="v245" depart="245.00">
    <route edges="e4 e7 e1 e24 e29 e37 e49 e43"/>
  </vehicle>
  <vehicle id="v246" depart="246.00">
    <route edges="e4 e7 e1 e24 e29 e37 e49 e43"/>
  </vehicle>
  <vehicle id="v247" depart="247.00">
    <route edges="e5 e8 e7 e1 e24 e29 e37 e49 e43"/>
  </vehicle>
  <vehicle id="v248" depart="248.00">
    <route edges="e5 e8 e7 e1 e24 e29 e37 e49 e43"/>
  </vehicle>
  <vehicle id="v249" depart="249.00">
    <route edges="e5 e8 e7 e1 e24 e29 e37 e49 e43"/>
  </vehicle>
  <vehicle id="v250" depart="250.00">
    <route edges="e5 e8 e7 e1 e24 e29 e37 e49 e43"/>
  </vehicle>
  <vehicle id="v251" depart="251.00">
    <route edges="e5 e8 e7 e1 e24 e29 e37 e49 e43"/>
  </vehicle>
  <vehicle id="v252" depart="252.00">
    <route edges="e0 e1 e24 e29 e37 e49 e43"/>
  </vehicle>
  <vehicle id="v253" depart="253.00">
    <route edges="e4 e7 e1 e24 e29 e37 e49 e43"/>
  </vehicle>
  <vehicle id="v254" depart="254.00">
    <route edges="e5 e8 e7 e1 e24 e29 e37 e49 e43"/>
  </vehicle>
  <vehicle id="v255" depart="255.00">
    <route edges="e5 e8 e7 e1 e24 e29 e37 e49 e43"/>
  </vehicle>
  <vehicle id="v256" depart="256.00">
    <route edges="e0 e1 e24 e29 e37 e49 e43"/>
  </vehicle>
  <vehicle id="v257" depart="257.00">
    <route edges="e4 e7 e1 e24 e29 e37 e49 e43"/>
  </vehicle>
  <vehicle id="v258" depart="258.00">
    <route edges="e5 e8 e7 e1 e24 e29 e37 e49 e43"/>
  </vehicle>
  <vehicle id="v259" depart="259.00">
    <route edges="e5 e8 e7 e1 e24 e29 e37 e49 e43"/>
  </vehicle>
  <vehicle id="v260" depart="260.00">
    <route edges="e0 e1 e24 e29 e37 e49 e43"/>
  </vehicle>
  <vehicle id="v261" depart="261.00">
    <route edges="e0 e1 e24 e29 e37 e49 e43"/>
  </vehicle>
  <vehicle id="v262" depart="262.00">
    <route edges="e4 e7 e1 e24 e29 e37 e49 e43"/>
  </vehicle>
  <vehicle id="v263" depart="263.00">
    <route edges="e5 e8 e7 e1 e24 e29 e37 e49 e43"/>
  </vehicle>
  <vehicle id="v264" depart="264.00">
    <route edges="e5 e8 e7 e1 e24 e29 e37 e49 e43"/>
  </vehicle>
  <vehicle id="v265" depart="265.00">
    <route edges="e4 e7 e1 e24 e29 e37 e49 e43"/>
  </vehicle>
  <vehicle id="v266" depart="266.00">
    <route edges="e0 e1 e24 e29 e37 e49 e43"/>
  </vehicle>
  <vehicle id="v267" depart="267.00">
    <route edges="e0 e1 e24 e29 e37 e49 e43"/>
  </vehicle>
  <vehicle id="v268" depart="268.00">
    <route edges="e5 e8 e7 e1 e24 e29 e37 e49 e43"/>
  </vehicle>
  <vehicle id="v269" depart="269.00">
    <route edges="e5 e8 e7 e1 e24 e29 e37 e49 e43"/>
  </vehicle>
  <vehicle id="v270" depart="270.00">
    <route edges="e0 e1 e24 e29 e37 e49 e43"/>
  </vehicle>
  <vehicle id="v271" depart="271.00">
    <route edges="e0 e1 e24 e29 e37 e49 e43"/>
  </vehicle>
  <vehicle id="v272" depart="272.00">
    <route edges="e5 e8 e7 e1 e24 e29 e37 e49 e43"/>
  </vehicle>
  <vehicle id="v273" depart="273.00">
    <route edges="e4 e7 e1 e24 e29 e37 e49 e43"/>
  </vehicle>
  <vehicle id="v274" depart="274.00">
    <route edges="e4 e7 e1 e24 e29 e37 e49 e43"/>
  </vehicle>
  <vehicle id="v275" depart="275.00">
    <route edges="e5 e8 e7 e1 e24 e29 e37 e49 e43"/>
  </vehicle>
  <vehicle id="v276" depart="276.00">
    <route edges="e5 e8 e7 e1 e24 e29 e37 e49 e43"/>
  </vehicle>
  <vehicle id="v277" depart="277.00">
    <route edges="e4 e7 e1 e24 e29 e37 e49 e43"/>
  </vehicle>
  <vehicle id="v278" depart="278.00">
    <route edges="e0 e1 e24 e29 e37 e49 e43"/>
  </vehicle>
  <vehicle id="v279" depart="279.00">
    <route edges="e4 e7 e1 e24 e29 e37 e49 e43"/>
  </vehicle>
  <vehicle id="v280" depart="280.00">
    <route edges="e0 e1 e24 e29 e37 e49 e43"/>
  </vehicle>
  <vehicle id="v281" depart="281.00">
    <route edges="e0 e1 e24 e29 e37 e49 e43"/>
  </vehicle>
  <vehicle id="v282" depart="282.00">
    <route edges="e5 e8 e7 e1 e24 e29 e37 e49 e43"/>
  </vehicle>
  <vehicle id="v283" depart="283.00">
    <route edges="e5 e8 e7 e1 e24 e29 e37 e49 e43"/>
  </vehicle>
  <vehicle id="v284" depart="284.00">
    <route edges="e0 e1 e24 e29 e37 e49 e43"/>
  </vehicle>
  <vehicle id="v285" depart="285.00">
    <route edges="e4 e7 e1 e24 e29 e37 e49 e43"/>
  </vehicle>
  <vehicle id="v286" depart="286.00">
    <route edges="e5 e8 e7 e1 e24 e29 e37 e49 e43"/>
  </vehicle>
  <vehicle id="v287" depart="287.00">
    <route edges="e4 e7 e1 e24 e29 e37 e49 e43"/>
  </vehicle>
  <vehicle id="v288" depart="288.00">
    <route edges="e5 e8 e7 e1 e24 e29 e37 e49 e43"/>
  </vehicle>
  <vehicle id="v289" depart="289.00">
    <route edges="e4 e7 e1 e24 e29 e37 e49 e43"/>
  </vehicle>
  <vehicle id="v290" depart="290.00">
    <route edges="e0 e1 e24 e29 e37 e49 e43"/>
  </vehicle>
  <vehicle id="v291" depart="291.00">
    <route edges="e5 e8 e7 e1 e24 e29 e37 e49 e43"/>
  </vehicle>
  <vehicle id="v292" depart="292.00">
    <route edges="e4 e7 e1 e24 e29 e37 e49 e43"/>
  </vehicle>
  <vehicle id="v293" depart="293.00">
    <route edges="e4 e7 e1 e24 e29 e37 e49 e43"/>
  </vehicle>
  <vehicle id="v294" depart="294.00">
    <route edges="e4 e7 e1 e24 e29 e37 e49 e43"/>
  </vehicle>
  <vehicle id="v295" depart="295.00">
    <route edges="e5 e8 e7 e1 e24 e29 e37 e49 e43"/>
  </vehicle>
  <vehicle id="v296" depart="296.00">
    <route edges="e0 e1 e24 e29 e37 e49 e43"/>
  </vehicle>
  <vehicle id="v297" depart="297.00">
    <route edges="e5 e8 e7 e1 e24 e29 e37 e49 e43"/>
  </vehicle>
  <vehicle id="v298" depart="298.00">
    <route edges="e5 e8 e7 e1 e24 e29 e37 e49 e43"/>
  </vehicle>