<configuration>

    <input>
        <net-file value="corridor.net.xml"/>
        <gui-settings-file value="corridor.settings.xml"/>
        <route-files value="corridor.rou.xml"/> 
    </input>

    <time>
        <begin value="0"/>
        <end value="600"/>
        <step-length value="0.2"/>
    </time>

</configuration>
